
 Starting FDS ...

 MPI Process      1 started on n01p051.cluster
 MPI Process      2 started on n01p051.cluster
 MPI Process      3 started on n01p051.cluster
 MPI Process      0 started on n01p051.cluster

 Reading FDS input file ...


 Fire Dynamics Simulator

 Current Date     : November  2, 2020  12:00:28
 Revision         : FDS6.7.1-961-ga80b7e2-dirty-master
 Revision Date    : Fri Aug 30 13:46:07 2019 +0300
 Compiler         : Intel ifort 19.0.4.243
 Compilation Date : Apr 05, 2020 13:12:28

 MPI Enabled;    Number of MPI Processes:       4
 OpenMP Enabled; Number of OpenMP Threads:      1

 MPI version: 3.1
 MPI library version: Intel(R) MPI Library 2019 Update 4 for Linux* OS


 Job TITLE        : 
 Job ID string    : Steckler

 Time Step:      1, Simulation Time:      0.04 s
 Time Step:      2, Simulation Time:      0.07 s
 Time Step:      3, Simulation Time:      0.11 s
 Time Step:      4, Simulation Time:      0.14 s
 Time Step:      5, Simulation Time:      0.16 s
 Time Step:      6, Simulation Time:      0.18 s
 Time Step:      7, Simulation Time:      0.20 s
 Time Step:      8, Simulation Time:      0.22 s
 Time Step:      9, Simulation Time:      0.25 s
 Time Step:     10, Simulation Time:      0.28 s
 Time Step:     20, Simulation Time:      0.50 s
 Time Step:     30, Simulation Time:      0.61 s
 Time Step:     40, Simulation Time:      0.68 s
 Time Step:     50, Simulation Time:      0.74 s
 Time Step:     60, Simulation Time:      0.79 s
 Time Step:     70, Simulation Time:      0.85 s
 Time Step:     80, Simulation Time:      0.91 s
 Time Step:     90, Simulation Time:      0.95 s
 Time Step:    100, Simulation Time:      1.00 s
 Time Step:    200, Simulation Time:      1.40 s
 Time Step:    300, Simulation Time:      1.80 s
 Time Step:    400, Simulation Time:      2.27 s
 Time Step:    500, Simulation Time:      2.75 s
 Time Step:    600, Simulation Time:      3.26 s
 Time Step:    700, Simulation Time:      3.76 s
 Time Step:    800, Simulation Time:      4.32 s
 Time Step:    900, Simulation Time:      4.79 s
 Time Step:   1000, Simulation Time:      5.31 s
 Time Step:   1100, Simulation Time:      5.81 s
 Time Step:   1200, Simulation Time:      6.31 s
 Time Step:   1300, Simulation Time:      6.80 s
 Time Step:   1400, Simulation Time:      7.30 s
 Time Step:   1500, Simulation Time:      7.81 s
 Time Step:   1600, Simulation Time:      8.31 s
 Time Step:   1700, Simulation Time:      8.79 s
 Time Step:   1800, Simulation Time:      9.32 s
 Time Step:   1900, Simulation Time:      9.80 s
 Time Step:   2000, Simulation Time:     10.30 s
 Time Step:   2100, Simulation Time:     10.82 s
 Time Step:   2200, Simulation Time:     11.35 s
 Time Step:   2300, Simulation Time:     11.89 s
 Time Step:   2400, Simulation Time:     12.37 s
 Time Step:   2500, Simulation Time:     12.86 s
 Time Step:   2600, Simulation Time:     13.37 s
 Time Step:   2700, Simulation Time:     13.86 s
 Time Step:   2800, Simulation Time:     14.34 s
 Time Step:   2900, Simulation Time:     14.83 s
 Time Step:   3000, Simulation Time:     15.38 s
 Time Step:   3100, Simulation Time:     15.88 s
 Time Step:   3200, Simulation Time:     16.36 s
 Time Step:   3300, Simulation Time:     16.90 s
 Time Step:   3400, Simulation Time:     17.43 s
 Time Step:   3500, Simulation Time:     18.03 s
 Time Step:   3600, Simulation Time:     18.60 s
 Time Step:   3700, Simulation Time:     19.22 s
 Time Step:   3800, Simulation Time:     19.80 s
 Time Step:   3900, Simulation Time:     20.40 s
 Time Step:   4000, Simulation Time:     21.06 s
 Time Step:   4100, Simulation Time:     21.69 s
 Time Step:   4200, Simulation Time:     22.30 s
 Time Step:   4300, Simulation Time:     22.92 s
 Time Step:   4400, Simulation Time:     23.55 s
 Time Step:   4500, Simulation Time:     24.21 s
 Time Step:   4600, Simulation Time:     24.87 s
 Time Step:   4700, Simulation Time:     25.50 s
 Time Step:   4800, Simulation Time:     26.14 s
 Time Step:   4900, Simulation Time:     26.71 s
 Time Step:   5000, Simulation Time:     27.34 s
 Time Step:   5100, Simulation Time:     27.96 s
 Time Step:   5200, Simulation Time:     28.62 s
 Time Step:   5300, Simulation Time:     29.21 s
 Time Step:   5400, Simulation Time:     29.87 s
 Time Step:   5500, Simulation Time:     30.58 s
 Time Step:   5600, Simulation Time:     31.23 s
 Time Step:   5700, Simulation Time:     31.89 s
 Time Step:   5800, Simulation Time:     32.61 s
 Time Step:   5900, Simulation Time:     33.32 s
 Time Step:   6000, Simulation Time:     33.93 s
 Time Step:   6100, Simulation Time:     34.61 s
 Time Step:   6200, Simulation Time:     35.25 s
 Time Step:   6300, Simulation Time:     35.89 s
 Time Step:   6400, Simulation Time:     36.51 s
 Time Step:   6500, Simulation Time:     37.19 s
 Time Step:   6600, Simulation Time:     37.85 s
 Time Step:   6700, Simulation Time:     38.57 s
 Time Step:   6800, Simulation Time:     39.22 s
 Time Step:   6900, Simulation Time:     39.87 s
 Time Step:   7000, Simulation Time:     40.49 s
 Time Step:   7100, Simulation Time:     41.22 s
 Time Step:   7200, Simulation Time:     41.85 s
 Time Step:   7300, Simulation Time:     42.58 s
 Time Step:   7400, Simulation Time:     43.26 s
 Time Step:   7500, Simulation Time:     43.94 s
 Time Step:   7600, Simulation Time:     44.58 s
 Time Step:   7700, Simulation Time:     45.19 s
 Time Step:   7800, Simulation Time:     45.86 s
 Time Step:   7900, Simulation Time:     46.52 s
 Time Step:   8000, Simulation Time:     47.24 s
 Time Step:   8100, Simulation Time:     47.95 s
 Time Step:   8200, Simulation Time:     48.66 s
 Time Step:   8300, Simulation Time:     49.31 s
 Time Step:   8400, Simulation Time:     49.92 s
 Time Step:   8500, Simulation Time:     50.54 s
 Time Step:   8600, Simulation Time:     51.15 s
 Time Step:   8700, Simulation Time:     51.86 s
 Time Step:   8800, Simulation Time:     52.47 s
 Time Step:   8900, Simulation Time:     53.08 s
 Time Step:   9000, Simulation Time:     53.73 s
 Time Step:   9100, Simulation Time:     54.44 s
 Time Step:   9200, Simulation Time:     55.10 s
 Time Step:   9300, Simulation Time:     55.76 s
 Time Step:   9400, Simulation Time:     56.38 s
 Time Step:   9500, Simulation Time:     57.09 s
 Time Step:   9600, Simulation Time:     57.72 s
 Time Step:   9700, Simulation Time:     58.49 s
 Time Step:   9800, Simulation Time:     59.13 s
 Time Step:   9900, Simulation Time:     59.85 s
 Time Step:  10000, Simulation Time:     60.47 s
 Time Step:  10100, Simulation Time:     61.22 s
 Time Step:  10200, Simulation Time:     61.90 s
 Time Step:  10300, Simulation Time:     62.61 s
 Time Step:  10400, Simulation Time:     63.31 s
 Time Step:  10500, Simulation Time:     64.05 s
 Time Step:  10600, Simulation Time:     64.67 s
 Time Step:  10700, Simulation Time:     65.30 s
 Time Step:  10800, Simulation Time:     66.04 s
 Time Step:  10900, Simulation Time:     66.74 s
 Time Step:  11000, Simulation Time:     67.39 s
 Time Step:  11100, Simulation Time:     68.11 s
 Time Step:  11200, Simulation Time:     68.74 s
 Time Step:  11300, Simulation Time:     69.37 s
 Time Step:  11400, Simulation Time:     70.12 s
 Time Step:  11500, Simulation Time:     70.81 s
 Time Step:  11600, Simulation Time:     71.48 s
 Time Step:  11700, Simulation Time:     72.17 s
 Time Step:  11800, Simulation Time:     72.87 s
 Time Step:  11900, Simulation Time:     73.53 s
 Time Step:  12000, Simulation Time:     74.17 s
 Time Step:  12100, Simulation Time:     74.75 s
 Time Step:  12140, Simulation Time:     75.00 s

STOP: FDS completed successfully (CHID: Steckler)
