
 Fire Dynamics Simulator

 Current Date     : November  2, 2020  12:00:28
 Revision         : FDS6.7.1-961-ga80b7e2-dirty-master
 Revision Date    : Fri Aug 30 13:46:07 2019 +0300
 Compiler         : Intel ifort 19.0.4.243
 Compilation Date : Apr 05, 2020 13:12:28

 MPI Enabled;    Number of MPI Processes:       4
 OpenMP Enabled; Number of OpenMP Threads:      1

 MPI version: 3.1
 MPI library version: Intel(R) MPI Library 2019 Update 4 for Linux* OS


 Job TITLE        : 
 Job ID string    : Steckler


 Grid Dimensions, Mesh     1

   Cells in the X Direction            67
   Cells in the Y Direction            27
   Cells in the Z Direction            79
   Number of Grid Cells            142911


 Physical Dimensions, Mesh     1

   Length (m)                       2.800
   Width  (m)                       1.100
   Height (m)                       3.300
   Initial Time Step (s)            0.036

 Grid Dimensions, Mesh     2

   Cells in the X Direction            67
   Cells in the Y Direction            27
   Cells in the Z Direction            79
   Number of Grid Cells            142911


 Physical Dimensions, Mesh     2

   Length (m)                       2.800
   Width  (m)                       1.100
   Height (m)                       3.300
   Initial Time Step (s)            0.036

 Grid Dimensions, Mesh     3

   Cells in the X Direction            67
   Cells in the Y Direction            27
   Cells in the Z Direction            79
   Number of Grid Cells            142911


 Physical Dimensions, Mesh     3

   Length (m)                       2.800
   Width  (m)                       1.100
   Height (m)                       3.300
   Initial Time Step (s)            0.036

 Grid Dimensions, Mesh     4

   Cells in the X Direction            67
   Cells in the Y Direction            27
   Cells in the Z Direction            79
   Number of Grid Cells            142911


 Physical Dimensions, Mesh     4

   Length (m)                       2.800
   Width  (m)                       1.100
   Height (m)                       3.300
   Initial Time Step (s)            0.036

Total Number of Grid Cells        571644


 Miscellaneous Parameters

   Time Shrink Factor (s/s)          20.0
   Simulation Start Time (s)          0.0
   Simulation End Time (s)         1500.0
   LES Calculation
   Eddy Viscosity:           Deardorff Model (C_DEARDORFF = 0.10)
   Near-wall Eddy Viscosity: Smagorinsky with Van Driest damping (C_SMAGORINSKY = 0.20)
   Turbulent Prandtl Number:         0.50
   Turbulent Schmidt Number:         0.50
   Ambient Temperature (C):         29.00


 Mass Fraction Transformation Matrix to Convert Species Mixtures (Columns) to Primitive Species (Rows)

                         AIR       METHANE   PRODUCTS
   METHANE               0.000000  1.000000  0.000000
   NITROGEN              0.760960  0.000000  0.719304
   OXYGEN                0.230540  0.000000  0.000000
   CARBON DIOXIDE        0.000590  0.000000  0.149900
   CARBON MONOXIDE       0.000000  0.000000  0.000274
   WATER VAPOR           0.007910  0.000000  0.130412
   SOOT                  0.000000  0.000000  0.000109
   HYDROGEN              0.000000  0.000000  0.000000


 Primitive Species Information

   METHANE
   Gas Species
   Molecular Weight (g/mol)            16.04246
   Ambient Density (kg/m^3)            0.647
   Enthalpy of Formation (J/kg)       -4.67E+06

   NITROGEN
   Gas Species
   Molecular Weight (g/mol)            28.01340
   Ambient Density (kg/m^3)            1.130
   Enthalpy of Formation (J/kg)        0.00E+00

   OXYGEN
   Gas Species
   Molecular Weight (g/mol)            31.99880
   Ambient Density (kg/m^3)            1.291
   Enthalpy of Formation (J/kg)        0.00E+00

   CARBON DIOXIDE
   Gas Species
   Molecular Weight (g/mol)            44.00950
   Ambient Density (kg/m^3)            1.775
   Enthalpy of Formation (J/kg)       -8.94E+06

   CARBON MONOXIDE
   Gas Species
   Molecular Weight (g/mol)            28.01010
   Ambient Density (kg/m^3)            1.130
   Enthalpy of Formation (J/kg)       -3.95E+06

   WATER VAPOR
   Gas Species
   Molecular Weight (g/mol)            18.01528
   Ambient Density (kg/m^3)            0.727
   Enthalpy of Formation (J/kg)       -1.34E+07

   SOOT
   Gas Species
   Molecular Weight (g/mol)            10.91042
   Ambient Density (kg/m^3)            0.440
   Enthalpy of Formation (J/kg)        0.00E+00

   HYDROGEN
   Gas Species
   Molecular Weight (g/mol)             2.01588
   Ambient Density (kg/m^3)            0.081
   Enthalpy of Formation (J/kg)        0.00E+00


 Tracked (Lumped) Species Information

   AIR
   Molecular Weight (g/mol)            28.71808
   Ambient Density (kg/m^3)            1.158
   Initial Mass Fraction               1.000
   Enthalpy of Formation (J/kg)     -1.11E+05

   Sub Species                    Mass Fraction     Mole Fraction
   NITROGEN                       7.609595E-01      7.801015E-01
   OXYGEN                         2.305398E-01      2.069034E-01
   CARBON DIOXIDE                 5.902933E-04      3.851916E-04
   WATER VAPOR                    7.910407E-03      1.260995E-02
 
     Viscosity (kg/m/s) Ambient,  302 K:  1.83E-05
                                  500 K:  2.61E-05
                                 1000 K:  4.12E-05
                                 1500 K:  5.37E-05
   Therm. Cond. (W/m/K) Ambient,  302 K:  2.61E-02
                                  500 K:  3.81E-02
                                 1000 K:  6.69E-02
                                 1500 K:  9.26E-02
        Enthalpy (J/kg) Ambient,  302 K: -1.07E+05
                                  500 K:  9.61E+04
                                 1000 K:  6.47E+05
                                 1500 K:  1.25E+06
    Spec. Heat (J/kg/K) Ambient,  302 K:  1.02E+03
                                  500 K:  1.04E+03
                                 1000 K:  1.16E+03
                                 1500 K:  1.23E+03
   Diff. Coeff. (m^2/s) Ambient,  302 K:  2.10E-05
                                  500 K:  4.96E-05
                                 1000 K:  1.58E-04
                                 1500 K:  3.10E-04

   METHANE
   Molecular Weight (g/mol)            16.04246
   Ambient Density (kg/m^3)            0.647
   Initial Mass Fraction               0.000
   Enthalpy of Formation (J/kg)     -4.67E+06

   Sub Species                    Mass Fraction     Mole Fraction
   METHANE                        1.000000E+00      1.000000E+00
 
     Viscosity (kg/m/s) Ambient,  302 K:  1.12E-05
                                  500 K:  1.68E-05
                                 1000 K:  2.73E-05
                                 1500 K:  3.56E-05
   Therm. Cond. (W/m/K) Ambient,  302 K:  3.59E-02
                                  500 K:  6.96E-02
                                 1000 K:  1.79E-01
                                 1500 K:  2.88E-01
        Enthalpy (J/kg) Ambient,  302 K: -4.64E+06
                                  500 K: -4.14E+06
                                 1000 K: -2.24E+06
                                 1500 K:  3.48E+05
    Spec. Heat (J/kg/K) Ambient,  302 K:  2.23E+03
                                  500 K:  2.90E+03
                                 1000 K:  4.59E+03
                                 1500 K:  5.66E+03
   Diff. Coeff. (m^2/s) Ambient,  302 K:  2.27E-05
                                  500 K:  5.44E-05
                                 1000 K:  1.75E-04
                                 1500 K:  3.43E-04

   PRODUCTS
   Molecular Weight (g/mol)            27.51635
   Ambient Density (kg/m^3)            1.110
   Initial Mass Fraction               0.000
   Enthalpy of Formation (J/kg)     -3.09E+06

   Sub Species                    Mass Fraction     Mole Fraction
   NITROGEN                       7.193044E-01      7.065416E-01
   CARBON DIOXIDE                 1.499002E-01      9.372310E-02
   CARBON MONOXIDE                2.737013E-04      2.688767E-04
   WATER VAPOR                    1.304122E-01      1.991903E-01
   SOOT                           1.094805E-04      2.761125E-04
 
     Viscosity (kg/m/s) Ambient,  302 K:  1.63E-05
                                  500 K:  2.37E-05
                                 1000 K:  3.88E-05
                                 1500 K:  5.15E-05
   Therm. Cond. (W/m/K) Ambient,  302 K:  2.40E-02
                                  500 K:  3.62E-02
                                 1000 K:  6.76E-02
                                 1500 K:  9.77E-02
        Enthalpy (J/kg) Ambient,  302 K: -3.09E+06
                                  500 K: -2.86E+06
                                 1000 K: -2.24E+06
                                 1500 K: -1.55E+06
    Spec. Heat (J/kg/K) Ambient,  302 K:  1.12E+03
                                  500 K:  1.17E+03
                                 1000 K:  1.32E+03
                                 1500 K:  1.44E+03
   Diff. Coeff. (m^2/s) Ambient,  302 K:  2.07E-05
                                  500 K:  5.00E-05
                                 1000 K:  1.62E-04
                                 1500 K:  3.19E-04


 Gas Phase Reaction Information

   Fuel                                           Heat of Combustion (kJ/kg)
   METHANE                                                        49892.6969

   Stoichiometry

   Primitive Species Stoich. Coeff.
   Species ID                                                          Molar
   METHANE                                                         -1.000000
   OXYGEN                                                          -1.995848
   CARBON DIOXIDE                                                   0.994490
   CARBON MONOXIDE                                                  0.002864
   WATER VAPOR                                                      1.999853
   SOOT                                                             0.002941

   Tracked (Lumped) Species Stoich. Coeff.
   Species ID                                             Molar         Mass
   AIR                                                -9.646280   -17.268089
   METHANE                                            -1.000000    -1.000000
   PRODUCTS                                           10.650579    18.268089

   Reaction Kinetics

   Arrhenius Parameters
   Pre-exponential:    Infinite
   Activation Energy:  N/A

   ODE Solver:  EXPLICIT EULER
   Extinction Model:  EXTINCTION 2
   Auto-Ignition Temperature (K):       0.0
   Critical Flame Temperature (K):   1780.2


 Material Information

   1 INSULATION                                                  
     Emissivity                      0.900
     Density (kg/m3)                 200.0
     Specific Heat (kJ/kg/K)      5.00E-02
     Conductivity (W/m/K)           0.1000


 Surface Conditions

   0 INERT

   1 FIBER BOARD (DEFAULT)
     Material List
          1  INSULATION
     Layer  1
        Thickness   (m):  0.10000
        Density (kg/m3):   200.00
        INSULATION, Mass fraction:    1.00
     Total surface density    20.000 kg/m2
     Reaction products considered from the first  0.50 layers.
     Solid Phase Node, Layer, Coordinates(m):
                    0      1       0.0000000
                    1      1       0.0021739
                    2      1       0.0065217
                    3      1       0.0152174
                    4      1       0.0326087
                    5      1       0.0673913
                    6      1       0.0847826
                    7      1       0.0934783
                    8      1       0.0978261
                    9      1       0.1000000
     Exposed Backing

   2 Burner
     Wall or Vent Temperature (C)   100.0
     HRR Per Unit Area (kW/m2)        890.0
     METHANE Mass Flux (kg/s/m2)   1.78E-02

   3 OPEN
     Passive Vent to Atmosphere

   4 MIRROR
     Symmetry Plane

   5 INTERPOLATED

   6 PERIODIC

   7 HVAC

   8 MASSLESS TRACER

   9 DROPLET

  10 EVACUATION_OUTFLOW
     Normal Velocity (m/s)         0.000

  11 MASSLESS TARGET

  12 PERIODIC WIND

  13 SLICE


 Device Coordinates

     1 Coords:      0.000000      0.000000      0.000418, Make: null, ID: T_door, Quantity: TEMPERATURE
     2 Coords:      0.000000      0.000000      0.130000, Make: null, ID: T_door, Quantity: TEMPERATURE
     3 Coords:      0.000000      0.000000      0.260000, Make: null, ID: T_door, Quantity: TEMPERATURE
     4 Coords:      0.000000      0.000000      0.390000, Make: null, ID: T_door, Quantity: TEMPERATURE
     5 Coords:      0.000000      0.000000      0.520000, Make: null, ID: T_door, Quantity: TEMPERATURE
     6 Coords:      0.000000      0.000000      0.650000, Make: null, ID: T_door, Quantity: TEMPERATURE
     7 Coords:      0.000000      0.000000      0.780000, Make: null, ID: T_door, Quantity: TEMPERATURE
     8 Coords:      0.000000      0.000000      0.910000, Make: null, ID: T_door, Quantity: TEMPERATURE
     9 Coords:      0.000000      0.000000      1.040000, Make: null, ID: T_door, Quantity: TEMPERATURE
    10 Coords:      0.000000      0.000000      1.170000, Make: null, ID: T_door, Quantity: TEMPERATURE
    11 Coords:      0.000000      0.000000      1.300000, Make: null, ID: T_door, Quantity: TEMPERATURE
    12 Coords:      0.000000      0.000000      1.430000, Make: null, ID: T_door, Quantity: TEMPERATURE
    13 Coords:      0.000000      0.000000      1.560000, Make: null, ID: T_door, Quantity: TEMPERATURE
    14 Coords:      0.000000      0.000000      1.690000, Make: null, ID: T_door, Quantity: TEMPERATURE
    15 Coords:      0.000000      0.000000      1.820000, Make: null, ID: T_door, Quantity: TEMPERATURE
    16 Coords:      0.000000      0.000000      0.000418, Make: null, ID: Vel_door, Quantity: VELOCITY
    17 Coords:      0.000000      0.000000      0.130000, Make: null, ID: Vel_door, Quantity: VELOCITY
    18 Coords:      0.000000      0.000000      0.260000, Make: null, ID: Vel_door, Quantity: VELOCITY
    19 Coords:      0.000000      0.000000      0.390000, Make: null, ID: Vel_door, Quantity: VELOCITY
    20 Coords:      0.000000      0.000000      0.520000, Make: null, ID: Vel_door, Quantity: VELOCITY
    21 Coords:      0.000000      0.000000      0.650000, Make: null, ID: Vel_door, Quantity: VELOCITY
    22 Coords:      0.000000      0.000000      0.780000, Make: null, ID: Vel_door, Quantity: VELOCITY
    23 Coords:      0.000000      0.000000      0.910000, Make: null, ID: Vel_door, Quantity: VELOCITY
    24 Coords:      0.000000      0.000000      1.040000, Make: null, ID: Vel_door, Quantity: VELOCITY
    25 Coords:      0.000000      0.000000      1.170000, Make: null, ID: Vel_door, Quantity: VELOCITY
    26 Coords:      0.000000      0.000000      1.300000, Make: null, ID: Vel_door, Quantity: VELOCITY
    27 Coords:      0.000000      0.000000      1.430000, Make: null, ID: Vel_door, Quantity: VELOCITY
    28 Coords:      0.000000      0.000000      1.560000, Make: null, ID: Vel_door, Quantity: VELOCITY
    29 Coords:      0.000000      0.000000      1.690000, Make: null, ID: Vel_door, Quantity: VELOCITY
    30 Coords:      0.000000      0.000000      1.820000, Make: null, ID: Vel_door, Quantity: VELOCITY
    31 Coords:      0.000000      0.000000      0.000418, Make: null, ID: U_door, Quantity: U-VELOCITY
    32 Coords:      0.000000      0.000000      0.130000, Make: null, ID: U_door, Quantity: U-VELOCITY
    33 Coords:      0.000000      0.000000      0.260000, Make: null, ID: U_door, Quantity: U-VELOCITY
    34 Coords:      0.000000      0.000000      0.390000, Make: null, ID: U_door, Quantity: U-VELOCITY
    35 Coords:      0.000000      0.000000      0.520000, Make: null, ID: U_door, Quantity: U-VELOCITY
    36 Coords:      0.000000      0.000000      0.650000, Make: null, ID: U_door, Quantity: U-VELOCITY
    37 Coords:      0.000000      0.000000      0.780000, Make: null, ID: U_door, Quantity: U-VELOCITY
    38 Coords:      0.000000      0.000000      0.910000, Make: null, ID: U_door, Quantity: U-VELOCITY
    39 Coords:      0.000000      0.000000      1.040000, Make: null, ID: U_door, Quantity: U-VELOCITY
    40 Coords:      0.000000      0.000000      1.170000, Make: null, ID: U_door, Quantity: U-VELOCITY
    41 Coords:      0.000000      0.000000      1.300000, Make: null, ID: U_door, Quantity: U-VELOCITY
    42 Coords:      0.000000      0.000000      1.430000, Make: null, ID: U_door, Quantity: U-VELOCITY
    43 Coords:      0.000000      0.000000      1.560000, Make: null, ID: U_door, Quantity: U-VELOCITY
    44 Coords:      0.000000      0.000000      1.690000, Make: null, ID: U_door, Quantity: U-VELOCITY
    45 Coords:      0.000000      0.000000      1.820000, Make: null, ID: U_door, Quantity: U-VELOCITY
    46 Coords:      0.000000      0.000000      0.000418, Make: null, ID: V_door, Quantity: V-VELOCITY
    47 Coords:      0.000000      0.000000      0.130000, Make: null, ID: V_door, Quantity: V-VELOCITY
    48 Coords:      0.000000      0.000000      0.260000, Make: null, ID: V_door, Quantity: V-VELOCITY
    49 Coords:      0.000000      0.000000      0.390000, Make: null, ID: V_door, Quantity: V-VELOCITY
    50 Coords:      0.000000      0.000000      0.520000, Make: null, ID: V_door, Quantity: V-VELOCITY
    51 Coords:      0.000000      0.000000      0.650000, Make: null, ID: V_door, Quantity: V-VELOCITY
    52 Coords:      0.000000      0.000000      0.780000, Make: null, ID: V_door, Quantity: V-VELOCITY
    53 Coords:      0.000000      0.000000      0.910000, Make: null, ID: V_door, Quantity: V-VELOCITY
    54 Coords:      0.000000      0.000000      1.040000, Make: null, ID: V_door, Quantity: V-VELOCITY
    55 Coords:      0.000000      0.000000      1.170000, Make: null, ID: V_door, Quantity: V-VELOCITY
    56 Coords:      0.000000      0.000000      1.300000, Make: null, ID: V_door, Quantity: V-VELOCITY
    57 Coords:      0.000000      0.000000      1.430000, Make: null, ID: V_door, Quantity: V-VELOCITY
    58 Coords:      0.000000      0.000000      1.560000, Make: null, ID: V_door, Quantity: V-VELOCITY
    59 Coords:      0.000000      0.000000      1.690000, Make: null, ID: V_door, Quantity: V-VELOCITY
    60 Coords:      0.000000      0.000000      1.820000, Make: null, ID: V_door, Quantity: V-VELOCITY
    61 Coords:      0.000000      0.000000      0.000418, Make: null, ID: W_door, Quantity: W-VELOCITY
    62 Coords:      0.000000      0.000000      0.130000, Make: null, ID: W_door, Quantity: W-VELOCITY
    63 Coords:      0.000000      0.000000      0.260000, Make: null, ID: W_door, Quantity: W-VELOCITY
    64 Coords:      0.000000      0.000000      0.390000, Make: null, ID: W_door, Quantity: W-VELOCITY
    65 Coords:      0.000000      0.000000      0.520000, Make: null, ID: W_door, Quantity: W-VELOCITY
    66 Coords:      0.000000      0.000000      0.650000, Make: null, ID: W_door, Quantity: W-VELOCITY
    67 Coords:      0.000000      0.000000      0.780000, Make: null, ID: W_door, Quantity: W-VELOCITY
    68 Coords:      0.000000      0.000000      0.910000, Make: null, ID: W_door, Quantity: W-VELOCITY
    69 Coords:      0.000000      0.000000      1.040000, Make: null, ID: W_door, Quantity: W-VELOCITY
    70 Coords:      0.000000      0.000000      1.170000, Make: null, ID: W_door, Quantity: W-VELOCITY
    71 Coords:      0.000000      0.000000      1.300000, Make: null, ID: W_door, Quantity: W-VELOCITY
    72 Coords:      0.000000      0.000000      1.430000, Make: null, ID: W_door, Quantity: W-VELOCITY
    73 Coords:      0.000000      0.000000      1.560000, Make: null, ID: W_door, Quantity: W-VELOCITY
    74 Coords:      0.000000      0.000000      1.690000, Make: null, ID: W_door, Quantity: W-VELOCITY
    75 Coords:      0.000000      0.000000      1.820000, Make: null, ID: W_door, Quantity: W-VELOCITY
    76 Coords:      0.000000      0.000000      0.910000, Make: null, ID: DM_in, Quantity: MASS FLOW +
    77 Coords:      0.000000      0.000000      0.910000, Make: null, ID: DM_out, Quantity: MASS FLOW -
    78 Coords:      1.000000      0.400000      0.910000, Make: null, ID: HGL Temp, Quantity: UPPER TEMPERATURE
    79 Coords:      1.000000      0.400000      0.910000, Make: null, ID: CGL Temp, Quantity: LOWER TEMPERATURE
    80 Coords:      1.000000      0.400000      0.910000, Make: null, ID: HGL Height, Quantity: LAYER HEIGHT


 Slice File Information, Mesh     1

   Sampling Interval (s)             0.750

   1 Nodes:  34  34   0  27   0  79, Quantity: TEMPERATURE
   2 Nodes:  34  34   0  27   0  79, Quantity: U-VELOCITY
   3 Nodes:  34  34   0  27   0  79, Quantity: V-VELOCITY
   4 Nodes:  34  34   0  27   0  79, Quantity: W-VELOCITY
   5 Nodes:  34  34   0  27   0  79, Quantity: HRRPUV
   6 Nodes:  34  34   0  27   0  79, Quantity: METHANE MASS FRACTION


 Radiation Model Information

   Number of control angles  104
   Time step increment         3
   Angle increment             5
   Theta band N_phi   Solid angle
     1:        4     0.120
     2:       12     0.114
     3:       16     0.127
     4:       20     0.120
     5:       20     0.120
     6:       16     0.127
     7:       12     0.114
     8:        4     0.120
   Using gray gas absorption.
   Mean beam length  0.100 m
 
 

 Run Time Diagnostics

       Time Step       1   November  2, 2020  12:00:30
       Step Size:    0.361E-01 s, Total Time:       0.04 s
       Pressure Iterations:      6
       Maximum Velocity Error:  0.19E-01 on Mesh   3 at (  34  28   1)
       Maximum Pressure Error:  0.13E+04 on Mesh   3 at (  34  19   1)
       ---------------------------------------------------------------
       Mesh    1
       Max CFL number:  0.17E-01 at (  48,  17,  59)
       Max divergence:  0.11E-05 at (  57,  21,  59)
       Min divergence: -0.29E-05 at (  39,  25,  38)
       Max VN number:   0.16E-01 at (  30,  17,  49)
       Radiation Loss to Boundaries:        -0.001 kW
       Mesh    2
       Max CFL number:  0.17E-01 at (  25,  20,  12)
       Max divergence:  0.13E-05 at (  60,  25,  75)
       Min divergence: -0.16E-05 at (  56,  25,  11)
       Max VN number:   0.16E-01 at (  47,   9,   7)
       Mesh    3
       Max CFL number:  0.19E-01 at (  37,  19,   3)
       Max divergence:  0.60E+01 at (  31,  17,   1)
       Min divergence: -0.15E-05 at (  33,   3,  52)
       Max VN number:   0.16E-01 at (  57,  22,  72)
       Total Heat Release Rate:              6.306 kW
       Radiation Loss to Boundaries:         0.003 kW
       Mesh    4
       Max CFL number:  0.17E-01 at (  33,  18,  33)
       Max divergence:  0.12E-05 at (  25,  11,  62)
       Min divergence: -0.18E-05 at (  25,  11,  19)
       Max VN number:   0.17E-01 at (  36,  18,  39)
 
       Time Step       2   November  2, 2020  12:00:30
       Step Size:    0.361E-01 s, Total Time:       0.07 s
       Pressure Iterations:     10
       Maximum Velocity Error:  0.22E-01 on Mesh   3 at (  34  28   1)
       Maximum Pressure Error:  0.15E+04 on Mesh   3 at (  34  19   1)
       ---------------------------------------------------------------
       Mesh    1
       Max CFL number:  0.17E-01 at (   5,  15,  71)
       Max divergence:  0.12E-05 at (  18,   4,   1)
       Min divergence: -0.29E-05 at (  39,  25,  38)
       Max VN number:   0.16E-01 at (  30,  17,  49)
       Radiation Loss to Boundaries:        -0.001 kW
       Mesh    2
       Max CFL number:  0.17E-01 at (  25,  20,  12)
       Max divergence:  0.13E-05 at (  60,  25,  75)
       Min divergence: -0.23E-05 at (  42,  19,  52)
       Max VN number:   0.16E-01 at (  47,   9,   7)
       Mesh    3
       Max CFL number:  0.34E+00 at (  34,  22,   1)
       Max divergence:  0.17E+02 at (  35,  19,   1)
       Min divergence: -0.22E-05 at (  33,   3,  52)
       Max VN number:   0.32E-01 at (  37,  19,   2)
       Total Heat Release Rate:             19.708 kW
       Radiation Loss to Boundaries:        -0.235 kW
       Mesh    4
       Max CFL number:  0.25E-01 at (  32,   2,   3)
       Max divergence:  0.12E-05 at (  25,  11,  62)
       Min divergence: -0.23E-05 at (  61,   2,  52)
       Max VN number:   0.17E-01 at (  36,  18,  39)
 
       Time Step       3   November  2, 2020  12:00:31
       Step Size:    0.361E-01 s, Total Time:       0.11 s
       Pressure Iterations:      2
       Maximum Velocity Error:  0.20E-01 on Mesh   3 at (  34  28   1)
       Maximum Pressure Error:  0.29E+04 on Mesh   3 at (  37  22   1)
       ---------------------------------------------------------------
       Mesh    1
       Max CFL number:  0.16E-01 at (   5,  15,  71)
       Max divergence:  0.11E-05 at (  18,   4,   1)
       Min divergence: -0.29E-05 at (  39,  25,  38)
       Max VN number:   0.16E-01 at (  30,  17,  49)
       Radiation Loss to Boundaries:        -0.001 kW
       Mesh    2
       Max CFL number:  0.19E-01 at (  32,  26,   2)
       Max divergence:  0.13E-05 at (  60,  25,  75)
       Min divergence: -0.23E-05 at (  42,  19,  52)
       Max VN number:   0.16E-01 at (  47,   9,   7)
       Mesh    3
       Max CFL number:  0.67E+00 at (  33,  18,   1)
       Max divergence:  0.18E+02 at (  34,  20,   1)
       Min divergence: -0.22E-05 at (  33,   3,  52)
       Max VN number:   0.21E+00 at (  34,  22,   1)
       Total Heat Release Rate:             32.410 kW
       Radiation Loss to Boundaries:        -4.591 kW
       Mesh    4
       Max CFL number:  0.66E-01 at (  34,   1,   1)
       Max divergence:  0.22E-05 at (  34,   1,   6)
       Min divergence: -0.22E-05 at (  61,   2,  52)
       Max VN number:   0.17E-01 at (  36,  18,  39)
 
       Time Step       4   November  2, 2020  12:00:32
       Step Size:    0.361E-01 s, Total Time:       0.14 s
       Pressure Iterations:     10
       Maximum Velocity Error:  0.83E-01 on Mesh   3 at (  34  28   1)
       Maximum Pressure Error:  0.87E+04 on Mesh   3 at (  34  22   1)
       ---------------------------------------------------------------
       Mesh    1
       Max CFL number:  0.16E-01 at (   5,  15,  71)
       Max divergence:  0.11E-05 at (  57,  21,  59)
       Min divergence: -0.29E-05 at (  34,  27,   1)
       Max VN number:   0.16E-01 at (  30,  17,  49)
       Mesh    2
       Max CFL number:  0.24E-01 at (  32,  26,   2)
       Max divergence:  0.21E-05 at (  39,  27,  14)
       Min divergence: -0.18E-05 at (  31,  21,  52)
       Max VN number:   0.16E-01 at (  47,   9,   7)
       Mesh    3
       Max CFL number:  0.83E+00 at (  35,  19,   2)
       Max divergence:  0.53E+01 at (  30,  17,   1)
       Min divergence: -0.24E+02 at (  34,  20,   1)
       Max VN number:   0.19E+00 at (  33,  17,   1)
       Total Heat Release Rate:             23.110 kW
       Radiation Loss to Boundaries:       -47.314 kW
       Mesh    4
       Max CFL number:  0.96E-01 at (  34,   1,   1)
       Max divergence:  0.43E-05 at (  35,   1,   5)
       Min divergence: -0.20E-05 at (  61,   2,  52)
       Max VN number:   0.16E-01 at (  36,  18,  39)
 
       Time Step       5   November  2, 2020  12:00:34
       Step Size:    0.170E-01 s, Total Time:       0.16 s
       Pressure Iterations:     10
       Maximum Velocity Error:  0.48E-01 on Mesh   3 at (  34  28   1)
       Maximum Pressure Error:  0.11E+05 on Mesh   3 at (  37  17   1)
       ---------------------------------------------------------------
       Mesh    1
       Max CFL number:  0.77E-02 at (  37,   4,  21)
       Max divergence:  0.11E-05 at (  57,  21,  59)
       Min divergence: -0.29E-05 at (  34,  27,   1)
       Max VN number:   0.75E-02 at (  30,  17,  49)
       Mesh    2
       Max CFL number:  0.77E-02 at (  20,  22,  27)
       Max divergence:  0.25E-05 at (  38,  27,  26)
       Min divergence: -0.19E-05 at (  31,  21,  52)
       Max VN number:   0.73E-02 at (  47,   9,   7)
       Mesh    3
       Max CFL number:  0.79E+00 at (  32,  22,   1)
       Max divergence:  0.18E+02 at (  31,  17,   1)
       Min divergence: -0.16E+01 at (  33,  17,   1)
       Max VN number:   0.73E-01 at (  36,  21,   2)
       Total Heat Release Rate:             17.713 kW
       Radiation Loss to Boundaries:        -2.769 kW
       Mesh    4
       Max CFL number:  0.33E-01 at (  34,   1,   1)
       Max divergence:  0.33E-05 at (  32,   1,   1)
       Min divergence: -0.20E-05 at (  33,   3,   7)
       Max VN number:   0.81E-02 at (  32,   2,   3)
 
       Time Step       6   November  2, 2020  12:00:35
       Step Size:    0.186E-01 s, Total Time:       0.18 s
       Pressure Iterations:      9
       Maximum Velocity Error:  0.20E-01 on Mesh   3 at (  34  28   1)
       Maximum Pressure Error:  0.10E+05 on Mesh   3 at (  32  17   1)
       ---------------------------------------------------------------
       Mesh    1
       Max CFL number:  0.84E-02 at (   5,  15,  71)
       Max divergence:  0.11E-05 at (  57,  21,  59)
       Min divergence: -0.28E-05 at (  34,  27,   1)
       Max VN number:   0.83E-02 at (  30,  17,  49)
       Mesh    2
       Max CFL number:  0.84E-02 at (  25,  20,  12)
       Max divergence:  0.32E-05 at (  38,  27,  26)
       Min divergence: -0.19E-05 at (  31,  21,  52)
       Max VN number:   0.80E-02 at (  47,   9,   7)
       Mesh    3
       Max CFL number:  0.43E+00 at (  36,  22,   1)
       Max divergence:  0.64E+01 at (  31,  22,   1)
       Min divergence: -0.18E+01 at (  36,  22,   1)
       Max VN number:   0.95E-01 at (  36,  21,   2)
       Total Heat Release Rate:              8.406 kW
       Radiation Loss to Boundaries:        -3.019 kW
       Mesh    4
       Max CFL number:  0.16E-01 at (  32,   1,   3)
       Max divergence:  0.71E-05 at (  32,   1,   2)
       Min divergence: -0.19E-05 at (  61,   2,  52)
       Max VN number:   0.85E-02 at (  36,  18,  39)
 
       Time Step       7   November  2, 2020  12:00:35
       Step Size:    0.205E-01 s, Total Time:       0.20 s
       Pressure Iterations:      2
       Maximum Velocity Error:  0.21E-01 on Mesh   3 at (  32  28   6)
       Maximum Pressure Error:  0.32E+03 on Mesh   3 at (  35  16   1)
       ---------------------------------------------------------------
       Mesh    1
       Max CFL number:  0.93E-02 at (   5,  15,  71)
       Max divergence:  0.11E-05 at (  57,  21,  59)
       Min divergence: -0.24E-05 at (  34,  27,   1)
       Max VN number:   0.91E-02 at (  30,  17,  49)
       Mesh    2
       Max CFL number:  0.95E-02 at (  41,  10,  12)
       Max divergence:  0.45E-05 at (  37,  27,  12)
       Min divergence: -0.17E-05 at (  31,  21,  52)
       Max VN number:   0.88E-02 at (  47,   9,   7)
       Mesh    3
       Max CFL number:  0.35E+00 at (  31,  22,   1)
       Max divergence:  0.57E+01 at (  31,  22,   1)
       Min divergence: -0.13E+01 at (  31,  21,   1)
       Max VN number:   0.88E-01 at (  36,  21,   2)
       Total Heat Release Rate:              6.970 kW
       Radiation Loss to Boundaries:        -1.884 kW
       Mesh    4
       Max CFL number:  0.17E-01 at (  32,   1,   3)
       Max divergence:  0.11E-04 at (  32,   1,   2)
       Min divergence: -0.19E-05 at (  61,   2,  52)
       Max VN number:   0.93E-02 at (  56,  17,  21)
 
       Time Step       8   November  2, 2020  12:00:36
       Step Size:    0.226E-01 s, Total Time:       0.22 s
       Pressure Iterations:      3
       Maximum Velocity Error:  0.18E-01 on Mesh   3 at (  37  28   7)
       Maximum Pressure Error:  0.57E+03 on Mesh   3 at (  31  22   1)
       ---------------------------------------------------------------
       Mesh    1
       Max CFL number:  0.10E-01 at (   5,  15,  71)
       Max divergence:  0.11E-05 at (  57,  21,  59)
       Min divergence: -0.20E-05 at (  34,  27,   1)
       Max VN number:   0.10E-01 at (  30,  17,  49)
       Mesh    2
       Max CFL number:  0.11E-01 at (  41,  11,  12)
       Max divergence:  0.57E-05 at (  37,  27,  12)
       Min divergence: -0.16E-05 at (   9,  13,  52)
       Max VN number:   0.97E-02 at (  47,   9,   7)
       Mesh    3
       Max CFL number:  0.34E+00 at (  31,  22,   1)
       Max divergence:  0.72E+01 at (  31,  21,   1)
       Min divergence: -0.11E+01 at (  37,  19,   1)
       Max VN number:   0.98E-01 at (  37,  22,   2)
       Total Heat Release Rate:              6.502 kW
       Radiation Loss to Boundaries:        -1.447 kW
       Mesh    4
       Max CFL number:  0.17E-01 at (  32,   1,   3)
       Max divergence:  0.14E-04 at (  32,   1,   2)
       Min divergence: -0.19E-05 at (  61,   2,  52)
       Max VN number:   0.10E-01 at (  56,  17,  21)
 
       Time Step       9   November  2, 2020  12:00:37
       Step Size:    0.248E-01 s, Total Time:       0.25 s
       Pressure Iterations:      1
       Maximum Velocity Error:  0.13E-01 on Mesh   3 at (  30  28  10)
       Maximum Pressure Error:  0.85E+03 on Mesh   3 at (  31  17   1)
       ---------------------------------------------------------------
       Mesh    1
       Max CFL number:  0.11E-01 at (   5,  15,  71)
       Max divergence:  0.11E-05 at (  57,  21,  59)
       Min divergence: -0.20E-05 at (  34,  27,   1)
       Max VN number:   0.11E-01 at (  30,  17,  49)
       Mesh    2
       Max CFL number:  0.12E-01 at (  41,  11,  12)
       Max divergence:  0.71E-05 at (  37,  27,  12)
       Min divergence: -0.16E-05 at (   9,  13,  52)
       Max VN number:   0.11E-01 at (  47,   9,   7)
       Mesh    3
       Max CFL number:  0.44E+00 at (  31,  21,   1)
       Max divergence:  0.13E+02 at (  36,  22,   1)
       Min divergence: -0.12E+01 at (  34,  19,   2)
       Max VN number:   0.12E+00 at (  37,  22,   2)
       Total Heat Release Rate:              9.037 kW
       Radiation Loss to Boundaries:        -2.074 kW
       Mesh    4
       Max CFL number:  0.18E-01 at (  32,   1,   3)
       Max divergence:  0.17E-04 at (  32,   1,   2)
       Min divergence: -0.19E-05 at (  61,   2,  52)
       Max VN number:   0.11E-01 at (  56,  17,  21)
 
       Time Step      10   November  2, 2020  12:00:38
       Step Size:    0.273E-01 s, Total Time:       0.28 s
       Pressure Iterations:      1
       Maximum Velocity Error:  0.12E-01 on Mesh   3 at (  21  28   1)
       Maximum Pressure Error:  0.63E+03 on Mesh   3 at (  32  17   1)
       ---------------------------------------------------------------
       Mesh    1
       Max CFL number:  0.12E-01 at (   5,  15,  71)
       Max divergence:  0.12E-05 at (  18,   4,   1)
       Min divergence: -0.17E-05 at (  34,  27,   1)
       Max VN number:   0.12E-01 at (  30,  17,  49)
       Mesh    2
       Max CFL number:  0.13E-01 at (  41,  11,  12)
       Max divergence:  0.86E-05 at (  37,  27,  12)
       Min divergence: -0.14E-05 at (   9,  13,  52)
       Max VN number:   0.12E-01 at (  53,  14,  21)
       Mesh    3
       Max CFL number:  0.63E+00 at (  36,  22,   1)
       Max divergence:  0.13E+02 at (  33,  22,   1)
       Min divergence: -0.20E+01 at (  34,  19,   2)
       Max VN number:   0.16E+00 at (  31,  17,   2)
       Total Heat Release Rate:             10.523 kW
       Radiation Loss to Boundaries:        -2.674 kW
       Mesh    4
       Max CFL number:  0.18E-01 at (  32,   1,   3)
       Max divergence:  0.22E-04 at (  32,   1,   2)
       Min divergence: -0.19E-05 at (  61,   2,  52)
       Max VN number:   0.12E-01 at (  56,  17,  21)
 
       Time Step      20   November  2, 2020  12:00:45
       Step Size:    0.171E-01 s, Total Time:       0.50 s
       Pressure Iterations:      1
       Maximum Velocity Error:  0.17E-01 on Mesh   3 at (  34  28  10)
       Maximum Pressure Error:  0.39E+04 on Mesh   3 at (  35  19   7)
       ---------------------------------------------------------------
       Mesh    1
       Max CFL number:  0.80E-02 at (  37,   5,  21)
       Max divergence:  0.13E-05 at (  42,  27,  24)
       Min divergence: -0.13E-05 at (  17,   9,  11)
       Max VN number:   0.74E-02 at (  30,  17,  49)
       Mesh    2
       Max CFL number:  0.13E-01 at (  26,  11,   7)
       Max divergence:  0.17E-02 at (  50,  13,   8)
       Min divergence: -0.12E-05 at (   3,  21,  76)
       Max VN number:   0.72E-02 at (  53,  14,  21)
       Radiation Loss to Boundaries:         0.148 kW
       Mesh    3
       Max CFL number:  0.97E+00 at (  36,  20,   2)
       Max divergence:  0.29E+02 at (  32,  19,   1)
       Min divergence: -0.39E+01 at (  35,  19,   1)
       Max VN number:   0.26E+00 at (  35,  19,   7)
       Total Heat Release Rate:             35.501 kW
       Radiation Loss to Boundaries:        -7.190 kW
       Mesh    4
       Max CFL number:  0.34E-01 at (  34,   1,   6)
       Max divergence:  0.47E-02 at (  31,   1,   1)
       Min divergence: -0.12E-05 at (  40,  12,  71)
       Max VN number:   0.75E-02 at (  56,  17,  21)
       Radiation Loss to Boundaries:         0.285 kW
 
       Time Step      30   November  2, 2020  12:00:53
       Step Size:    0.875E-02 s, Total Time:       0.61 s
       Pressure Iterations:      1
       Maximum Velocity Error:  0.17E-01 on Mesh   3 at (  34  28   6)
       Maximum Pressure Error:  0.41E+04 on Mesh   3 at (  33  20  11)
       ---------------------------------------------------------------
       Mesh    1
       Max CFL number:  0.44E-02 at (  39,  27,  10)
       Max divergence:  0.35E-05 at (  43,  27,  30)
       Min divergence: -0.12E-05 at (  17,   9,  11)
       Max VN number:   0.37E-02 at (  30,  17,  49)
       Mesh    2
       Max CFL number:  0.10E-01 at (  26,  11,   7)
       Max divergence:  0.77E-02 at (  50,  13,   8)
       Min divergence: -0.12E-05 at (   3,  21,  76)
       Max VN number:   0.42E-02 at (  26,  10,   4)
       Radiation Loss to Boundaries:         0.201 kW
       Mesh    3
       Max CFL number:  0.96E+00 at (  33,  20,   5)
       Max divergence:  0.19E+02 at (  34,  18,   1)
       Min divergence: -0.36E+01 at (  35,  17,   7)
       Max VN number:   0.23E+00 at (  33,  20,  10)
       Total Heat Release Rate:             58.421 kW
       Radiation Loss to Boundaries:       -12.256 kW
       Mesh    4
       Max CFL number:  0.36E-01 at (  34,   1,   9)
       Max divergence:  0.96E-02 at (  31,   1,   1)
       Min divergence: -0.12E-05 at (  40,  12,  71)
       Max VN number:   0.38E-02 at (  56,  17,  21)
       Radiation Loss to Boundaries:         0.411 kW
 
       Time Step      40   November  2, 2020  12:01:01
       Step Size:    0.653E-02 s, Total Time:       0.68 s
       Pressure Iterations:      1
       Maximum Velocity Error:  0.13E-01 on Mesh   4 at (  34   0  18)
       Maximum Pressure Error:  0.45E+04 on Mesh   3 at (  35  17  13)
       ---------------------------------------------------------------
       Mesh    1
       Max CFL number:  0.39E-02 at (  32,  27,  11)
       Max divergence:  0.52E-03 at (  42,  27,  30)
       Min divergence: -0.11E-05 at (   9,   3,  23)
       Max VN number:   0.28E-02 at (  30,  17,  49)
       Radiation Loss to Boundaries:         0.057 kW
       Mesh    2
       Max CFL number:  0.11E-01 at (  42,  11,  44)
       Max divergence:  0.27E-02 at (  50,  13,   8)
       Min divergence: -0.12E-05 at (   3,  21,  76)
       Max VN number:   0.42E-02 at (  42,  10,  44)
       Radiation Loss to Boundaries:         0.154 kW
       Mesh    3
       Max CFL number:  0.93E+00 at (  34,  18,   8)
       Max divergence:  0.23E+02 at (  35,  19,  10)
       Min divergence: -0.37E+01 at (  32,  18,   1)
       Max VN number:   0.18E+00 at (  33,  20,  14)
       Total Heat Release Rate:             77.716 kW
       Radiation Loss to Boundaries:       -15.184 kW
       Mesh    4
       Max CFL number:  0.42E-01 at (  34,   1,  12)
       Max divergence:  0.67E-02 at (  32,   1,   1)
       Min divergence: -0.11E-05 at (  40,  12,  71)
       Max VN number:   0.29E-02 at (  34,   1,   1)
       Radiation Loss to Boundaries:         0.323 kW
 
       Time Step      50   November  2, 2020  12:01:08
       Step Size:    0.505E-02 s, Total Time:       0.74 s
       Pressure Iterations:      1
       Maximum Velocity Error:  0.11E-01 on Mesh   3 at (  34  28  20)
       Maximum Pressure Error:  0.28E+04 on Mesh   3 at (  35  19  17)
       ---------------------------------------------------------------
       Mesh    1
       Max CFL number:  0.37E-02 at (  32,  27,  11)
       Max divergence:  0.94E-04 at (  27,  27,  10)
       Min divergence: -0.10E-05 at (   8,  21,  73)
       Max VN number:   0.21E-02 at (  30,  17,  49)
       Radiation Loss to Boundaries:         0.020 kW
       Mesh    2
       Max CFL number:  0.15E-01 at (  42,  11,  44)
       Max divergence:  0.25E-02 at (  50,  13,   8)
       Min divergence: -0.12E-05 at (   3,  21,  76)
       Max VN number:   0.53E-02 at (  42,  10,  44)
       Radiation Loss to Boundaries:         0.234 kW
       Mesh    3
       Max CFL number:  0.94E+00 at (  34,  20,  12)
       Max divergence:  0.18E+02 at (  34,  20,  15)
       Min divergence: -0.32E+01 at (  32,  20,  14)
       Max VN number:   0.17E+00 at (  34,  17,  11)
       Total Heat Release Rate:            100.145 kW
       Radiation Loss to Boundaries:       -20.180 kW
       Mesh    4
       Max CFL number:  0.48E-01 at (  34,   1,  14)
       Max divergence:  0.13E-01 at (  35,   1,   1)
       Min divergence: -0.11E-05 at (  40,  12,  71)
       Max VN number:   0.22E-02 at (  34,   1,   1)
       Radiation Loss to Boundaries:         0.510 kW
 
       Time Step      60   November  2, 2020  12:01:17
       Step Size:    0.556E-02 s, Total Time:       0.79 s
       Pressure Iterations:      1
       Maximum Velocity Error:  0.18E-01 on Mesh   3 at (  34  28  14)
       Maximum Pressure Error:  0.52E+04 on Mesh   3 at (  36  20   1)
       ---------------------------------------------------------------
       Mesh    1
       Max CFL number:  0.54E-02 at (  32,  27,  11)
       Max divergence:  0.22E-03 at (  27,  27,  14)
       Min divergence: -0.93E-06 at (   8,  21,  73)
       Max VN number:   0.23E-02 at (  30,  17,  49)
       Radiation Loss to Boundaries:         0.038 kW
       Mesh    2
       Max CFL number:  0.29E-01 at (  42,  11,  44)
       Max divergence:  0.26E-02 at (  42,  13,  53)
       Min divergence: -0.12E-05 at (   3,  21,  76)
       Max VN number:   0.98E-02 at (  42,  10,  44)
       Radiation Loss to Boundaries:         0.334 kW
       Mesh    3
       Max CFL number:  0.86E+00 at (  34,  20,  15)
       Max divergence:  0.19E+02 at (  33,  20,   5)
       Min divergence: -0.36E+01 at (  33,  19,   7)
       Max VN number:   0.20E+00 at (  34,  20,  17)
       Total Heat Release Rate:             87.312 kW
       Radiation Loss to Boundaries:       -17.027 kW
       Mesh    4
       Max CFL number:  0.63E-01 at (  34,   1,  16)
       Max divergence:  0.16E-01 at (  34,   1,   1)
       Min divergence: -0.11E-05 at (  40,  12,  71)
       Max VN number:   0.24E-02 at (  56,  17,  21)
       Radiation Loss to Boundaries:         0.714 kW
 
       Time Step      70   November  2, 2020  12:01:24
       Step Size:    0.612E-02 s, Total Time:       0.85 s
       Pressure Iterations:      1
       Maximum Velocity Error:  0.16E-01 on Mesh   3 at (  34  28  11)
       Maximum Pressure Error:  0.19E+04 on Mesh   3 at (  36  20   1)
       ---------------------------------------------------------------
       Mesh    1
       Max CFL number:  0.81E-02 at (  33,  26,  32)
       Max divergence:  0.47E-03 at (  41,  27,   1)
       Min divergence: -0.84E-06 at (  67,  24,  76)
       Max VN number:   0.25E-02 at (  30,  17,  49)
       Radiation Loss to Boundaries:         0.069 kW
       Mesh    2
       Max CFL number:  0.51E-01 at (  42,  11,  44)
       Max divergence:  0.43E-02 at (  49,  13,   7)
       Min divergence: -0.38E-04 at (  42,  10,  44)
       Max VN number:   0.17E-01 at (  42,  10,  44)
       Radiation Loss to Boundaries:         0.495 kW
       Mesh    3
       Max CFL number:  0.90E+00 at (  34,  20,  14)
       Max divergence:  0.21E+02 at (  31,  17,   1)
       Min divergence: -0.51E+01 at (  35,  19,  10)
       Max VN number:   0.23E+00 at (  34,  20,  19)
       Total Heat Release Rate:             71.456 kW
       Radiation Loss to Boundaries:       -13.097 kW
       Mesh    4
       Max CFL number:  0.71E-01 at (  34,   1,  18)
       Max divergence:  0.62E-01 at (  34,   1,  15)
       Min divergence: -0.11E-05 at (  40,  12,  71)
       Max VN number:   0.36E-02 at (  33,   1,  14)
       Radiation Loss to Boundaries:         1.013 kW
 
       Time Step      80   November  2, 2020  12:01:31
       Step Size:    0.612E-02 s, Total Time:       0.91 s
       Pressure Iterations:      1
       Maximum Velocity Error:  0.13E-01 on Mesh   3 at (  35  28  19)
       Maximum Pressure Error:  0.19E+04 on Mesh   3 at (  33  20  12)
       ---------------------------------------------------------------
       Mesh    1
       Max CFL number:  0.10E-01 at (  33,  26,  32)
       Max divergence:  0.56E-03 at (  27,  27,   1)
       Min divergence: -0.76E-06 at (  67,  24,  76)
       Max VN number:   0.25E-02 at (  30,  17,  49)
       Radiation Loss to Boundaries:         0.080 kW
       Mesh    2
       Max CFL number:  0.71E-01 at (  42,  11,  44)
       Max divergence:  0.46E-02 at (  43,  13,   7)
       Min divergence: -0.34E-03 at (  42,  10,  44)
       Max VN number:   0.25E-01 at (  42,  10,  44)
       Radiation Loss to Boundaries:         0.510 kW
       Mesh    3
       Max CFL number:  0.98E+00 at (  35,  19,  16)
       Max divergence:  0.24E+02 at (  31,  22,   1)
       Min divergence: -0.47E+01 at (  31,  15,  15)
       Max VN number:   0.27E+00 at (  33,  20,  12)
       Total Heat Release Rate:             62.395 kW
       Radiation Loss to Boundaries:       -11.485 kW
       Mesh    4
       Max CFL number:  0.77E-01 at (  35,   1,  20)
       Max divergence:  0.14E+00 at (  34,   1,  16)
       Min divergence: -0.11E-05 at (  40,  12,  71)
       Max VN number:   0.60E-02 at (  34,   1,  16)
       Total Heat Release Rate:              0.005 kW
       Radiation Loss to Boundaries:         1.045 kW
 
       Time Step      90   November  2, 2020  12:01:39
       Step Size:    0.451E-02 s, Total Time:       0.95 s
       Pressure Iterations:      1
       Maximum Velocity Error:  0.19E-01 on Mesh   3 at (  35  28  19)
       Maximum Pressure Error:  0.27E+04 on Mesh   3 at (  36  20   1)
       ---------------------------------------------------------------
       Mesh    1
       Max CFL number:  0.89E-02 at (  35,  27,  29)
       Max divergence:  0.57E-03 at (  42,  21,   1)
       Min divergence: -0.71E-06 at (  67,  24,  76)
       Max VN number:   0.19E-02 at (  30,  17,  49)
       Radiation Loss to Boundaries:         0.115 kW
       Mesh    2
       Max CFL number:  0.60E-01 at (  26,  11,  44)
       Max divergence:  0.44E-02 at (  35,  27,   1)
       Min divergence: -0.52E-03 at (  42,  10,  44)
       Max VN number:   0.23E-01 at (  42,  10,  44)
       Radiation Loss to Boundaries:         0.450 kW
       Mesh    3
       Max CFL number:  0.89E+00 at (  34,  19,  17)
       Max divergence:  0.20E+02 at (  34,  20,  11)
       Min divergence: -0.75E+01 at (  35,  20,  17)
       Max VN number:   0.27E+00 at (  34,  19,  22)
       Total Heat Release Rate:             54.060 kW
       Radiation Loss to Boundaries:        -9.884 kW
       Mesh    4
       Max CFL number:  0.68E-01 at (  34,   1,  14)
       Max divergence:  0.12E+00 at (  34,   1,  17)
       Min divergence: -0.11E-05 at (  40,  12,  71)
       Max VN number:   0.54E-02 at (  34,   1,  17)
       Total Heat Release Rate:              0.005 kW
       Radiation Loss to Boundaries:         0.918 kW
 
       Time Step     100   November  2, 2020  12:01:46
       Step Size:    0.404E-02 s, Total Time:       1.00 s
       Pressure Iterations:      2
       Maximum Velocity Error:  0.11E-01 on Mesh   3 at (  35  28  23)
       Maximum Pressure Error:  0.28E+04 on Mesh   3 at (  31  20   1)
       ---------------------------------------------------------------
       Mesh    1
       Max CFL number:  0.87E-02 at (  35,  27,  29)
       Max divergence:  0.39E-03 at (  26,  16,   1)
       Min divergence: -0.68E-06 at (  67,  24,  76)
       Max VN number:   0.17E-02 at (  30,  17,  49)
       Radiation Loss to Boundaries:         0.087 kW
       Mesh    2
       Max CFL number:  0.55E-01 at (  26,  11,  44)
       Max divergence:  0.36E-02 at (  43,  13,  24)
       Min divergence: -0.59E-03 at (  42,  10,  44)
       Max VN number:   0.23E-01 at (  42,  10,  44)
       Radiation Loss to Boundaries:         0.376 kW
       Mesh    3
       Max CFL number:  0.83E+00 at (  34,  20,  18)
       Max divergence:  0.28E+02 at (  34,  20,  13)
       Min divergence: -0.72E+01 at (  35,  20,  16)
       Max VN number:   0.23E+00 at (  34,  19,  24)
       Total Heat Release Rate:             51.172 kW
       Radiation Loss to Boundaries:        -9.274 kW
       Mesh    4
       Max CFL number:  0.67E-01 at (  34,   1,  16)
       Max divergence:  0.12E+00 at (  36,   1,  20)
       Min divergence: -0.11E-05 at (  19,   2,  75)
       Max VN number:   0.56E-02 at (  36,   1,  19)
       Total Heat Release Rate:              0.003 kW
       Radiation Loss to Boundaries:         0.800 kW
 
       Time Step     200   November  2, 2020  12:02:56
       Step Size:    0.382E-02 s, Total Time:       1.40 s
       Pressure Iterations:      2
       Maximum Velocity Error:  0.64E-02 on Mesh   3 at (  34  28  15)
       Maximum Pressure Error:  0.24E+04 on Mesh   3 at (  35  21  32)
       ---------------------------------------------------------------
       Mesh    1
       Max CFL number:  0.53E-02 at (  36,  27,  37)
       Max divergence:  0.57E-03 at (  41,  27,   1)
       Min divergence: -0.67E-06 at (  67,  24,  76)
       Max VN number:   0.15E-02 at (  34,   9,   6)
       Radiation Loss to Boundaries:         0.092 kW
       Mesh    2
       Max CFL number:  0.31E-01 at (  40,  12,  42)
       Max divergence:  0.51E-02 at (  30,  27,   1)
       Min divergence: -0.11E-05 at (   3,  21,  76)
       Max VN number:   0.14E-01 at (  42,   8,  44)
       Radiation Loss to Boundaries:         0.510 kW
       Mesh    3
       Max CFL number:  0.88E+00 at (  34,  20,  27)
       Max divergence:  0.19E+02 at (  32,  17,   1)
       Min divergence: -0.63E+01 at (  35,  22,  34)
       Max VN number:   0.26E+00 at (  34,  19,  48)
       Total Heat Release Rate:             76.507 kW
       Radiation Loss to Boundaries:       -13.410 kW
       Mesh    4
       Max CFL number:  0.91E-01 at (  34,   1,  30)
       Max divergence:  0.13E+00 at (  35,   1,  32)
       Min divergence: -0.11E-05 at (  19,   2,  75)
       Max VN number:   0.23E-01 at (  34,   1,  26)
       Radiation Loss to Boundaries:         1.102 kW
 
       Time Step     300   November  2, 2020  12:04:16
       Step Size:    0.410E-02 s, Total Time:       1.80 s
       Pressure Iterations:      3
       Maximum Velocity Error:  0.18E-01 on Mesh   3 at (  51  28  53)
       Maximum Pressure Error:  0.30E+04 on Mesh   3 at (  34  22  33)
       ---------------------------------------------------------------
       Mesh    1
       Max CFL number:  0.70E-02 at (  36,  27,  37)
       Max divergence:  0.68E-03 at (  27,  27,   1)
       Min divergence: -0.60E-06 at (  67,  24,  76)
       Max VN number:   0.16E-02 at (  34,   9,   6)
       Radiation Loss to Boundaries:         0.088 kW
       Mesh    2
       Max CFL number:  0.42E+00 at (  32,  27,  53)
       Max divergence:  0.81E+00 at (  24,  26,  53)
       Min divergence: -0.11E+01 at (  34,  23,  53)
       Max VN number:   0.12E+00 at (  27,  27,  53)
       Radiation Loss to Boundaries:         0.404 kW
       Mesh    3
       Max CFL number:  0.88E+00 at (  33,  21,  26)
       Max divergence:  0.24E+02 at (  36,  22,   1)
       Min divergence: -0.82E+01 at (  33,  19,  17)
       Max VN number:   0.25E+00 at (  32,  15,  33)
       Total Heat Release Rate:             60.687 kW
       Radiation Loss to Boundaries:       -11.233 kW
       Mesh    4
       Max CFL number:  0.56E+00 at (  36,  13,  53)
       Max divergence:  0.13E+01 at (  36,  15,  53)
       Min divergence: -0.13E+01 at (  23,  14,  53)
       Max VN number:   0.22E+00 at (  36,  13,  53)
       Radiation Loss to Boundaries:         0.826 kW
 
       Time Step     400   November  2, 2020  12:05:36
       Step Size:    0.545E-02 s, Total Time:       2.27 s
       Pressure Iterations:      2
       Maximum Velocity Error:  0.15E-01 on Mesh   3 at (  23  28  52)
       Maximum Pressure Error:  0.45E+04 on Mesh   3 at (  35  18  17)
       ---------------------------------------------------------------
       Mesh    1
       Max CFL number:  0.11E-01 at (  36,  27,  37)
       Max divergence:  0.62E-03 at (  41,  27,   1)
       Min divergence: -0.58E-06 at (  67,  24,  76)
       Max VN number:   0.20E-02 at (  34,   9,   6)
       Radiation Loss to Boundaries:         0.060 kW
       Mesh    2
       Max CFL number:  0.46E+00 at (  37,  17,  53)
       Max divergence:  0.76E+00 at (  60,  18,  53)
       Min divergence: -0.83E+00 at (  55,  14,  53)
       Max VN number:   0.28E+00 at (  37,  13,  53)
       Radiation Loss to Boundaries:         0.273 kW
       Mesh    3
       Max CFL number:  0.95E+00 at (  35,  18,  16)
       Max divergence:  0.34E+02 at (  31,  21,   1)
       Min divergence: -0.12E+02 at (  35,  18,  16)
       Max VN number:   0.33E+00 at (  34,  23,  53)
       Total Heat Release Rate:             77.924 kW
       Radiation Loss to Boundaries:       -15.159 kW
       Mesh    4
       Max CFL number:  0.51E+00 at (  29,   3,  53)
       Max divergence:  0.14E+01 at (  19,   2,  52)
       Min divergence: -0.91E+00 at (  29,   8,  53)
       Max VN number:   0.26E+00 at (   1,   1,  52)
       Radiation Loss to Boundaries:         0.662 kW
 
       Time Step     500   November  2, 2020  12:06:50
       Step Size:    0.541E-02 s, Total Time:       2.75 s
       Pressure Iterations:      3
       Maximum Velocity Error:  0.14E-01 on Mesh   3 at (  38  28  52)
       Maximum Pressure Error:  0.48E+04 on Mesh   3 at (  32  18  15)
       ---------------------------------------------------------------
       Mesh    1
       Max CFL number:  0.10E-01 at (  35,  27,  32)
       Max divergence:  0.59E-03 at (  27,  27,   1)
       Min divergence: -0.56E-06 at (   8,  26,  78)
       Max VN number:   0.20E-02 at (  36,  23,  38)
       Radiation Loss to Boundaries:         0.065 kW
       Mesh    2
       Max CFL number:  0.29E+00 at (  31,  18,  53)
       Max divergence:  0.32E+00 at (  37,  25,  52)
       Min divergence: -0.30E+00 at (  36,  26,  51)
       Max VN number:   0.16E+00 at (  24,  13,  53)
       Radiation Loss to Boundaries:         0.333 kW
       Mesh    3
       Max CFL number:  0.98E+00 at (  32,  18,  15)
       Max divergence:  0.22E+02 at (  37,  20,   1)
       Min divergence: -0.76E+01 at (  33,  20,  20)
       Max VN number:   0.29E+00 at (  32,  18,  14)
       Total Heat Release Rate:             75.279 kW
       Radiation Loss to Boundaries:       -14.466 kW
       Mesh    4
       Max CFL number:  0.47E+00 at (  38,   2,  53)
       Max divergence:  0.58E+00 at (  35,   2,  53)
       Min divergence: -0.63E+00 at (  39,   3,  53)
       Max VN number:   0.17E+00 at (  26,   5,  53)
       Radiation Loss to Boundaries:         0.749 kW
 
       Time Step     600   November  2, 2020  12:08:08
       Step Size:    0.567E-02 s, Total Time:       3.26 s
       Pressure Iterations:      2
       Maximum Velocity Error:  0.17E-01 on Mesh   4 at (  40   0  52)
       Maximum Pressure Error:  0.14E+04 on Mesh   3 at (  34  17  16)
       ---------------------------------------------------------------
       Mesh    1
       Max CFL number:  0.14E-01 at (  28,  27,  42)
       Max divergence:  0.75E-03 at (  41,  27,   1)
       Min divergence: -0.51E-06 at (   8,  26,  78)
       Max VN number:   0.51E-02 at (  28,  27,  42)
       Radiation Loss to Boundaries:         0.077 kW
       Mesh    2
       Max CFL number:  0.45E+00 at (  33,  21,  52)
       Max divergence:  0.37E+00 at (  29,  27,  52)
       Min divergence: -0.43E+00 at (  33,  21,  52)
       Max VN number:   0.14E+00 at (  33,  21,  52)
       Radiation Loss to Boundaries:         0.280 kW
       Mesh    3
       Max CFL number:  0.82E+00 at (  31,  18,  39)
       Max divergence:  0.21E+02 at (  35,  21,   5)
       Min divergence: -0.45E+01 at (  33,  16,  13)
       Max VN number:   0.28E+00 at (  27,  17,  40)
       Total Heat Release Rate:             69.768 kW
       Radiation Loss to Boundaries:       -13.428 kW
       Mesh    4
       Max CFL number:  0.46E+00 at (  33,   2,  53)
       Max divergence:  0.38E+00 at (  24,   1,  52)
       Min divergence: -0.38E+00 at (  24,   1,  53)
       Max VN number:   0.17E+00 at (  67,   1,  53)
       Radiation Loss to Boundaries:         0.635 kW
 
       Time Step     700   November  2, 2020  12:09:25
       Step Size:    0.539E-02 s, Total Time:       3.76 s
       Pressure Iterations:      3
       Maximum Velocity Error:  0.17E-01 on Mesh   3 at (  45  28  53)
       Maximum Pressure Error:  0.24E+04 on Mesh   3 at (  34  17   8)
       ---------------------------------------------------------------
       Mesh    1
       Max CFL number:  0.21E-01 at (  41,  27,  40)
       Max divergence:  0.84E-03 at (  27,  27,   1)
       Min divergence: -0.44E-06 at (   8,  26,  78)
       Max VN number:   0.70E-02 at (  40,  27,  40)
       Radiation Loss to Boundaries:         0.082 kW
       Mesh    2
       Max CFL number:  0.30E+00 at (  41,  17,  53)
       Max divergence:  0.21E+00 at (  39,  14,  42)
       Min divergence: -0.26E+00 at (  39,  25,  51)
       Max VN number:   0.15E+00 at (   1,  22,  53)
       Radiation Loss to Boundaries:         0.345 kW
       Mesh    3
       Max CFL number:  0.96E+00 at (  34,  23,  22)
       Max divergence:  0.21E+02 at (  36,  19,   2)
       Min divergence: -0.14E+02 at (  35,  25,  29)
       Max VN number:   0.38E+00 at (  35,  25,  28)
       Total Heat Release Rate:             65.574 kW
       Radiation Loss to Boundaries:       -11.425 kW
       Mesh    4
       Max CFL number:  0.52E+00 at (  32,   2,  53)
       Max divergence:  0.77E+00 at (  36,   1,  23)
       Min divergence: -0.33E+00 at (  11,   5,  52)
       Max VN number:   0.19E+00 at (   1,   6,  53)
       Total Heat Release Rate:              0.002 kW
       Radiation Loss to Boundaries:         0.864 kW
 
       Time Step     800   November  2, 2020  12:10:48
       Step Size:    0.579E-02 s, Total Time:       4.32 s
       Pressure Iterations:      4
       Maximum Velocity Error:  0.11E-01 on Mesh   3 at (  35  28  44)
       Maximum Pressure Error:  0.79E+04 on Mesh   3 at (  36  18  17)
       ---------------------------------------------------------------
       Mesh    1
       Max CFL number:  0.80E-01 at (  42,  27,  37)
       Max divergence:  0.65E-02 at (  41,  27,  34)
       Min divergence: -0.16E-01 at (  42,  27,  35)
       Max VN number:   0.24E-01 at (  42,  27,  35)
       Radiation Loss to Boundaries:         0.061 kW
       Mesh    2
       Max CFL number:  0.35E+00 at (  53,  16,  53)
       Max divergence:  0.27E+00 at (  15,  27,  52)
       Min divergence: -0.27E+00 at (  16,  27,  52)
       Max VN number:   0.21E+00 at (  50,  13,  53)
       Radiation Loss to Boundaries:         0.283 kW
       Mesh    3
       Max CFL number:  0.93E+00 at (  36,  16,  17)
       Max divergence:  0.34E+02 at (  34,  19,  12)
       Min divergence: -0.57E+01 at (  35,  17,  20)
       Max VN number:   0.39E+00 at (  36,  16,  17)
       Total Heat Release Rate:             90.818 kW
       Radiation Loss to Boundaries:       -18.130 kW
       Mesh    4
       Max CFL number:  0.59E+00 at (  31,   2,  48)
       Max divergence:  0.82E+00 at (  32,   7,  51)
       Min divergence: -0.12E+01 at (  38,   5,  37)
       Max VN number:   0.20E+00 at (  33,   7,  53)
       Radiation Loss to Boundaries:         0.631 kW
 
       Time Step     900   November  2, 2020  12:12:05
       Step Size:    0.504E-02 s, Total Time:       4.79 s
       Pressure Iterations:      2
       Maximum Velocity Error:  0.14E-01 on Mesh   3 at (  33  28  52)
       Maximum Pressure Error:  0.32E+04 on Mesh   3 at (  37  21   1)
       ---------------------------------------------------------------
       Mesh    1
       Max CFL number:  0.58E-01 at (  43,  25,  37)
       Max divergence:  0.52E-02 at (  41,  26,  36)
       Min divergence: -0.12E-01 at (  42,  24,  37)
       Max VN number:   0.21E-01 at (  42,  26,  38)
       Radiation Loss to Boundaries:         0.084 kW
       Mesh    2
       Max CFL number:  0.30E+00 at (  34,  24,  53)
       Max divergence:  0.19E+00 at (  16,  14,  41)
       Min divergence: -0.25E+00 at (  36,  13,  38)
       Max VN number:   0.13E+00 at (   1,  21,  53)
       Radiation Loss to Boundaries:         0.301 kW
       Mesh    3
       Max CFL number:  0.84E+00 at (  33,  17,  33)
       Max divergence:  0.19E+02 at (  31,  17,   1)
       Min divergence: -0.61E+01 at (  30,  16,  27)
       Max VN number:   0.29E+00 at (  29,  22,  53)
       Total Heat Release Rate:             67.692 kW
       Radiation Loss to Boundaries:       -13.246 kW
       Mesh    4
       Max CFL number:  0.37E+00 at (  13,  12,  52)
       Max divergence:  0.32E+00 at (  32,   1,  53)
       Min divergence: -0.33E+00 at (  40,   5,  46)
       Max VN number:   0.14E+00 at (  61,  27,  53)
       Radiation Loss to Boundaries:         0.711 kW
 
       Time Step    1000   November  2, 2020  12:13:23
       Step Size:    0.478E-02 s, Total Time:       5.31 s
       Pressure Iterations:      2
       Maximum Velocity Error:  0.20E-01 on Mesh   3 at (  34  28  28)
       Maximum Pressure Error:  0.55E+04 on Mesh   3 at (  33  15  18)
       ---------------------------------------------------------------
       Mesh    1
       Max CFL number:  0.48E-01 at (  42,  27,  43)
       Max divergence:  0.49E-02 at (  27,  27,  40)
       Min divergence: -0.10E-01 at (  42,  25,  45)
       Max VN number:   0.19E-01 at (  42,  26,  40)
       Radiation Loss to Boundaries:         0.088 kW
       Mesh    2
       Max CFL number:  0.36E+00 at (  40,  26,  53)
       Max divergence:  0.25E+00 at (  37,  22,  52)
       Min divergence: -0.49E+00 at (  34,  27,  52)
       Max VN number:   0.11E+00 at (  17,  13,  53)
       Radiation Loss to Boundaries:         0.389 kW
       Mesh    3
       Max CFL number:  0.85E+00 at (  33,  18,  13)
       Max divergence:  0.25E+02 at (  33,  20,   5)
       Min divergence: -0.64E+01 at (  33,  15,  17)
       Max VN number:   0.26E+00 at (  31,  15,  53)
       Total Heat Release Rate:             64.000 kW
       Radiation Loss to Boundaries:       -10.878 kW
       Mesh    4
       Max CFL number:  0.37E+00 at (  37,   2,  53)
       Max divergence:  0.13E+01 at (  35,   1,  32)
       Min divergence: -0.86E+00 at (  34,   2,  30)
       Max VN number:   0.16E+00 at (   1,   4,  53)
       Radiation Loss to Boundaries:         0.799 kW
 
       Time Step    1100   November  2, 2020  12:14:39
       Step Size:    0.466E-02 s, Total Time:       5.81 s
       Pressure Iterations:      2
       Maximum Velocity Error:  0.13E-01 on Mesh   3 at (  39  28  46)
       Maximum Pressure Error:  0.32E+04 on Mesh   3 at (  32  18   1)
       ---------------------------------------------------------------
       Mesh    1
       Max CFL number:  0.56E-01 at (  42,  27,  46)
       Max divergence:  0.97E-02 at (  41,  27,  44)
       Min divergence: -0.21E-01 at (  42,  27,  33)
       Max VN number:   0.18E-01 at (  42,  27,  33)
       Radiation Loss to Boundaries:         0.098 kW
       Mesh    2
       Max CFL number:  0.29E+00 at (  43,  22,  52)
       Max divergence:  0.26E+00 at (  67,  27,  53)
       Min divergence: -0.28E+00 at (  41,  23,  53)
       Max VN number:   0.16E+00 at (  58,  13,  53)
       Radiation Loss to Boundaries:         0.386 kW
       Mesh    3
       Max CFL number:  0.84E+00 at (  34,  20,  26)
       Max divergence:  0.22E+02 at (  33,  19,   8)
       Min divergence: -0.86E+01 at (  34,  21,  28)
       Max VN number:   0.26E+00 at (  34,  21,  27)
       Total Heat Release Rate:             77.817 kW
       Radiation Loss to Boundaries:       -13.787 kW
       Mesh    4
       Max CFL number:  0.34E+00 at (  32,   1,  53)
       Max divergence:  0.55E+00 at (  37,   1,  46)
       Min divergence: -0.56E+00 at (  34,   1,  46)
       Max VN number:   0.13E+00 at (  67,  13,  53)
       Radiation Loss to Boundaries:         0.842 kW
 
       Time Step    1200   November  2, 2020  12:15:56
       Step Size:    0.503E-02 s, Total Time:       6.31 s
       Pressure Iterations:      3
       Maximum Velocity Error:  0.11E-01 on Mesh   4 at (  28   0  47)
       Maximum Pressure Error:  0.26E+04 on Mesh   3 at (  32  18   7)
       ---------------------------------------------------------------
       Mesh    1
       Max CFL number:  0.81E-01 at (  42,  27,  48)
       Max divergence:  0.82E-02 at (  40,  27,  51)
       Min divergence: -0.12E-01 at (  43,  27,  40)
       Max VN number:   0.16E-01 at (  42,  27,  47)
       Radiation Loss to Boundaries:         0.080 kW
       Mesh    2
       Max CFL number:  0.36E+00 at (  36,  27,  53)
       Max divergence:  0.16E+00 at (  31,  14,  53)
       Min divergence: -0.16E+00 at (  38,  15,  37)
       Max VN number:   0.11E+00 at (  67,  17,  38)
       Radiation Loss to Boundaries:         0.308 kW
       Mesh    3
       Max CFL number:  0.91E+00 at (  35,  20,  18)
       Max divergence:  0.25E+02 at (  33,  18,   2)
       Min divergence: -0.54E+01 at (  34,  20,  19)
       Max VN number:   0.24E+00 at (  34,  23,  25)
       Total Heat Release Rate:             63.892 kW
       Radiation Loss to Boundaries:       -11.419 kW
       Mesh    4
       Max CFL number:  0.42E+00 at (  26,   4,  53)
       Max divergence:  0.19E+00 at (  21,   1,  51)
       Min divergence: -0.23E+00 at (   2,   3,  32)
       Max VN number:   0.22E+00 at (  27,   2,  53)
       Radiation Loss to Boundaries:         0.746 kW
 
       Time Step    1300   November  2, 2020  12:17:14
       Step Size:    0.533E-02 s, Total Time:       6.80 s
       Pressure Iterations:      4
       Maximum Velocity Error:  0.13E-01 on Mesh   3 at (  23  28  53)
       Maximum Pressure Error:  0.56E+04 on Mesh   3 at (  33  19  22)
       ---------------------------------------------------------------
       Mesh    1
       Max CFL number:  0.12E+00 at (  30,  27,  50)
       Max divergence:  0.16E-01 at (  41,  27,  44)
       Min divergence: -0.15E-01 at (  31,  26,  49)
       Max VN number:   0.26E-01 at (  30,  26,  48)
       Radiation Loss to Boundaries:         0.074 kW
       Mesh    2
       Max CFL number:  0.32E+00 at (   9,  25,  53)
       Max divergence:  0.17E+00 at (   3,  26,  53)
       Min divergence: -0.21E+00 at (   7,  24,  53)
       Max VN number:   0.16E+00 at (   1,  25,  53)
       Radiation Loss to Boundaries:         0.345 kW
       Mesh    3
       Max CFL number:  0.95E+00 at (  32,  18,  15)
       Max divergence:  0.25E+02 at (  35,  19,   6)
       Min divergence: -0.57E+01 at (  37,  19,  18)
       Max VN number:   0.35E+00 at (  32,  18,  53)
       Total Heat Release Rate:             85.374 kW
       Radiation Loss to Boundaries:       -15.655 kW
       Mesh    4
       Max CFL number:  0.46E+00 at (  26,   1,  53)
       Max divergence:  0.32E+00 at (  36,   1,  39)
       Min divergence: -0.32E+00 at (  25,   1,  53)
       Max VN number:   0.14E+00 at (   1,  17,  53)
       Radiation Loss to Boundaries:         0.791 kW
 
       Time Step    1400   November  2, 2020  12:18:31
       Step Size:    0.467E-02 s, Total Time:       7.30 s
       Pressure Iterations:      2
       Maximum Velocity Error:  0.78E-02 on Mesh   3 at (  25  28  52)
       Maximum Pressure Error:  0.33E+04 on Mesh   3 at (  36  18   1)
       ---------------------------------------------------------------
       Mesh    1
       Max CFL number:  0.13E+00 at (  35,  27,  51)
       Max divergence:  0.31E-01 at (  28,  27,  45)
       Min divergence: -0.67E-01 at (  28,  27,  43)
       Max VN number:   0.26E-01 at (  28,  27,  43)
       Radiation Loss to Boundaries:         0.077 kW
       Mesh    2
       Max CFL number:  0.33E+00 at (  31,  27,  52)
       Max divergence:  0.25E+00 at (  40,  10,  42)
       Min divergence: -0.18E+00 at (  26,  10,  40)
       Max VN number:   0.11E+00 at (   1,  13,  48)
       Radiation Loss to Boundaries:         0.294 kW
       Mesh    3
       Max CFL number:  0.80E+00 at (  32,  20,  17)
       Max divergence:  0.27E+02 at (  36,  19,   4)
       Min divergence: -0.87E+01 at (  35,  16,   8)
       Max VN number:   0.23E+00 at (  37,  12,  53)
       Total Heat Release Rate:             67.394 kW
       Radiation Loss to Boundaries:       -12.486 kW
       Mesh    4
       Max CFL number:  0.40E+00 at (  29,  18,  53)
       Max divergence:  0.54E+00 at (  33,   1,  22)
       Min divergence: -0.33E+00 at (  18,  12,  52)
       Max VN number:   0.15E+00 at (   1,   3,  53)
       Radiation Loss to Boundaries:         0.733 kW
 
       Time Step    1500   November  2, 2020  12:19:49
       Step Size:    0.539E-02 s, Total Time:       7.81 s
       Pressure Iterations:      3
       Maximum Velocity Error:  0.16E-01 on Mesh   3 at (  26  28  53)
       Maximum Pressure Error:  0.52E+04 on Mesh   3 at (  30  22  17)
       ---------------------------------------------------------------
       Mesh    1
       Max CFL number:  0.18E+00 at (  29,  25,  49)
       Max divergence:  0.98E-01 at (  38,  27,  46)
       Min divergence: -0.15E+00 at (  26,  26,  43)
       Max VN number:   0.45E-01 at (  28,  23,  49)
       Radiation Loss to Boundaries:         0.078 kW
       Mesh    2
       Max CFL number:  0.34E+00 at (  41,  16,  53)
       Max divergence:  0.31E+00 at (  34,  13,  49)
       Min divergence: -0.34E+00 at (  51,  14,  53)
       Max VN number:   0.16E+00 at (  46,  13,  53)
       Radiation Loss to Boundaries:         0.265 kW
       Mesh    3
       Max CFL number:  0.90E+00 at (  38,  18,  31)
       Max divergence:  0.18E+02 at (  32,  18,   4)
       Min divergence: -0.77E+01 at (  30,  20,  17)
       Max VN number:   0.29E+00 at (  31,  19,   9)
       Total Heat Release Rate:             67.824 kW
       Radiation Loss to Boundaries:       -11.766 kW
       Mesh    4
       Max CFL number:  0.56E+00 at (  31,   7,  53)
       Max divergence:  0.66E+00 at (  28,   1,  40)
       Min divergence: -0.61E+00 at (  32,   1,  43)
       Max VN number:   0.20E+00 at (  29,   2,  53)
       Radiation Loss to Boundaries:         0.749 kW
 
       Time Step    1600   November  2, 2020  12:21:08
       Step Size:    0.549E-02 s, Total Time:       8.31 s
       Pressure Iterations:      4
       Maximum Velocity Error:  0.17E-01 on Mesh   3 at (  26  28  31)
       Maximum Pressure Error:  0.28E+04 on Mesh   3 at (  39  21  15)
       ---------------------------------------------------------------
       Mesh    1
       Max CFL number:  0.25E+00 at (  37,  25,  58)
       Max divergence:  0.13E+00 at (  37,  27,  46)
       Min divergence: -0.12E+00 at (  31,  24,  42)
       Max VN number:   0.57E-01 at (  28,  21,  63)
       Radiation Loss to Boundaries:         0.060 kW
       Mesh    2
       Max CFL number:  0.36E+00 at (  26,  25,  53)
       Max divergence:  0.23E+00 at (  38,   9,  43)
       Min divergence: -0.31E+00 at (  42,   9,  42)
       Max VN number:   0.13E+00 at (  42,  13,  44)
       Radiation Loss to Boundaries:         0.243 kW
       Mesh    3
       Max CFL number:  0.91E+00 at (  32,  21,  47)
       Max divergence:  0.21E+02 at (  31,  20,   1)
       Min divergence: -0.62E+01 at (  36,  21,  12)
       Max VN number:   0.25E+00 at (  32,  21,  46)
       Total Heat Release Rate:             76.851 kW
       Radiation Loss to Boundaries:       -14.846 kW
       Mesh    4
       Max CFL number:  0.39E+00 at (  31,  18,  53)
       Max divergence:  0.54E+00 at (  26,   2,  32)
       Min divergence: -0.99E+00 at (  27,   2,  32)
       Max VN number:   0.19E+00 at (   1,   9,  53)
       Radiation Loss to Boundaries:         0.665 kW
 
       Time Step    1700   November  2, 2020  12:22:22
       Step Size:    0.510E-02 s, Total Time:       8.79 s
       Pressure Iterations:      2
       Maximum Velocity Error:  0.16E-01 on Mesh   3 at (  31  28  42)
       Maximum Pressure Error:  0.36E+04 on Mesh   3 at (  32  18   1)
       ---------------------------------------------------------------
       Mesh    1
       Max CFL number:  0.24E+00 at (  31,  24,  63)
       Max divergence:  0.15E+00 at (  30,  22,  55)
       Min divergence: -0.18E+00 at (  31,  22,  55)
       Max VN number:   0.63E-01 at (  41,  21,  59)
       Radiation Loss to Boundaries:         0.070 kW
       Mesh    2
       Max CFL number:  0.34E+00 at (  31,  27,  53)
       Max divergence:  0.19E+00 at (  26,   9,  44)
       Min divergence: -0.24E+00 at (  32,  27,  53)
       Max VN number:   0.12E+00 at (  48,  13,  53)
       Radiation Loss to Boundaries:         0.281 kW
       Mesh    3
       Max CFL number:  0.87E+00 at (  35,  19,  21)
       Max divergence:  0.21E+02 at (  37,  22,   1)
       Min divergence: -0.69E+01 at (  35,  19,  17)
       Max VN number:   0.27E+00 at (  33,  18,  14)
       Total Heat Release Rate:             64.276 kW
       Radiation Loss to Boundaries:       -11.842 kW
       Mesh    4
       Max CFL number:  0.34E+00 at (  37,   9,  53)
       Max divergence:  0.32E+00 at (  29,   1,  41)
       Min divergence: -0.47E+00 at (  30,   3,  40)
       Max VN number:   0.11E+00 at (  45,   5,  53)
       Radiation Loss to Boundaries:         0.693 kW
 
       Time Step    1800   November  2, 2020  12:23:38
       Step Size:    0.473E-02 s, Total Time:       9.32 s
       Pressure Iterations:      2
       Maximum Velocity Error:  0.13E-01 on Mesh   3 at (  30  28  52)
       Maximum Pressure Error:  0.44E+04 on Mesh   3 at (  34  19  20)
       ---------------------------------------------------------------
       Mesh    1
       Max CFL number:  0.22E+00 at (  28,  26,  76)
       Max divergence:  0.10E+00 at (  37,  24,  39)
       Min divergence: -0.20E+00 at (  30,  21,  46)
       Max VN number:   0.64E-01 at (  42,  18,  63)
       Radiation Loss to Boundaries:         0.059 kW
       Mesh    2
       Max CFL number:  0.38E+00 at (  31,  22,  53)
       Max divergence:  0.30E+00 at (  32,  25,  52)
       Min divergence: -0.35E+00 at (  31,  20,  53)
       Max VN number:   0.13E+00 at (  24,  13,  53)
       Radiation Loss to Boundaries:         0.222 kW
       Mesh    3
       Max CFL number:  0.89E+00 at (  35,  20,  15)
       Max divergence:  0.32E+02 at (  34,  20,   4)
       Min divergence: -0.77E+01 at (  33,  17,  21)
       Max VN number:   0.28E+00 at (  33,  17,  21)
       Total Heat Release Rate:             74.271 kW
       Radiation Loss to Boundaries:       -13.787 kW
       Mesh    4
       Max CFL number:  0.40E+00 at (  33,   1,  53)
       Max divergence:  0.31E+00 at (  41,   1,  50)
       Min divergence: -0.36E+00 at (  31,   3,  53)
       Max VN number:   0.17E+00 at (  34,   1,  53)
       Radiation Loss to Boundaries:         0.580 kW
 
       Time Step    1900   November  2, 2020  12:24:54
       Step Size:    0.409E-02 s, Total Time:       9.80 s
       Pressure Iterations:      2
       Maximum Velocity Error:  0.18E-01 on Mesh   3 at (  35  28  52)
       Maximum Pressure Error:  0.15E+04 on Mesh   3 at (  36  18   1)
       ---------------------------------------------------------------
       Mesh    1
       Max CFL number:  0.20E+00 at (  32,  21,  64)
       Max divergence:  0.12E+00 at (  40,  27,  44)
       Min divergence: -0.21E+00 at (  39,  19,  54)
       Max VN number:   0.53E-01 at (  30,  15,  62)
       Radiation Loss to Boundaries:         0.054 kW
       Mesh    2
       Max CFL number:  0.24E+00 at (  37,  17,  52)
       Max divergence:  0.28E+00 at (  26,  10,  43)
       Min divergence: -0.30E+00 at (  26,  13,  44)
       Max VN number:   0.95E-01 at (  67,  19,  53)
       Radiation Loss to Boundaries:         0.156 kW
       Mesh    3
       Max CFL number:  0.88E+00 at (  34,  20,  27)
       Max divergence:  0.22E+02 at (  35,  22,   2)
       Min divergence: -0.53E+01 at (  33,  20,  15)
       Max VN number:   0.26E+00 at (  35,  21,  10)
       Total Heat Release Rate:             59.790 kW
       Radiation Loss to Boundaries:       -11.640 kW
       Mesh    4
       Max CFL number:  0.37E+00 at (  42,   1,  53)
       Max divergence:  0.29E+00 at (  27,   4,  52)
       Min divergence: -0.27E+00 at (  43,   1,  53)
       Max VN number:   0.82E-01 at (  45,  27,  53)
       Radiation Loss to Boundaries:         0.495 kW
 
       Time Step    2000   November  2, 2020  12:26:07
       Step Size:    0.544E-02 s, Total Time:      10.30 s
       Pressure Iterations:      3
       Maximum Velocity Error:  0.14E-01 on Mesh   4 at (  46   0  53)
       Maximum Pressure Error:  0.86E+03 on Mesh   3 at (  30  20  12)
       ---------------------------------------------------------------
       Mesh    1
       Max CFL number:  0.30E+00 at (  34,  21,  68)
       Max divergence:  0.14E+00 at (  33,  24,  48)
       Min divergence: -0.16E+00 at (  27,  19,  51)
       Max VN number:   0.62E-01 at (  39,  20,  64)
       Radiation Loss to Boundaries:         0.064 kW
       Mesh    2
       Max CFL number:  0.41E+00 at (  38,  27,  53)
       Max divergence:  0.34E+00 at (  32,  10,  43)
       Min divergence: -0.31E+00 at (  44,  27,  52)
       Max VN number:   0.18E+00 at (  18,  13,  53)
       Radiation Loss to Boundaries:         0.155 kW
       Mesh    3
       Max CFL number:  0.88E+00 at (  31,  20,  17)
       Max divergence:  0.21E+02 at (  32,  21,   1)
       Min divergence: -0.70E+01 at (  31,  20,  17)
       Max VN number:   0.29E+00 at (  36,  15,  24)
       Total Heat Release Rate:             49.704 kW
       Radiation Loss to Boundaries:        -9.172 kW
       Mesh    4
       Max CFL number:  0.46E+00 at (  36,   4,  53)
       Max divergence:  0.41E+00 at (  41,   5,  50)
       Min divergence: -0.46E+00 at (  42,   8,  53)
       Max VN number:   0.14E+00 at (  43,   1,  53)
       Radiation Loss to Boundaries:         0.559 kW
 
       Time Step    2100   November  2, 2020  12:27:26
       Step Size:    0.538E-02 s, Total Time:      10.82 s
       Pressure Iterations:      3
       Maximum Velocity Error:  0.16E-01 on Mesh   3 at (  31  28  53)
       Maximum Pressure Error:  0.21E+04 on Mesh   3 at (  34  22   1)
       ---------------------------------------------------------------
       Mesh    1
       Max CFL number:  0.29E+00 at (  31,  16,  77)
       Max divergence:  0.20E+00 at (  30,  26,  41)
       Min divergence: -0.22E+00 at (  34,  22,  43)
       Max VN number:   0.69E-01 at (  27,  13,  63)
       Radiation Loss to Boundaries:         0.050 kW
       Mesh    2
       Max CFL number:  0.28E+00 at (  39,  17,  53)
       Max divergence:  0.41E+00 at (  41,  12,  44)
       Min divergence: -0.45E+00 at (  41,  13,  44)
       Max VN number:   0.13E+00 at (  55,  13,  53)
       Radiation Loss to Boundaries:         0.181 kW
       Mesh    3
       Max CFL number:  0.93E+00 at (  32,  18,  19)
       Max divergence:  0.35E+02 at (  31,  19,   1)
       Min divergence: -0.74E+01 at (  31,  17,  18)
       Max VN number:   0.35E+00 at (  30,  23,  53)
[...]
       Max divergence:  0.24E+02 at (  37,  21,   1)
       Min divergence: -0.37E+01 at (  33,  25,   5)
       Max div. error:  0.10E-07 at (  67,  27,  53)
       Max VN number:   0.14E+00 at (  33,  25,   4)
       Total Heat Release Rate:             33.954 kW
       Radiation Loss to Boundaries:        -2.668 kW
       Mesh    4
       Max CFL number:  0.90E+00 at (  37,  18,  29)
       Max divergence:  0.13E+02 at (  31,   1,   2)
       Min divergence: -0.12E+02 at (  40,  18,  21)
       Max div. error:  0.10E-07 at (  67,   1,  53)
       Max VN number:   0.32E+00 at (  36,  12,  15)
       Total Heat Release Rate:             28.239 kW
       Radiation Loss to Boundaries:        -7.946 kW
 
       Time Step   11200   November  2, 2020  14:29:55
       Step Size:    0.675E-02 s, Total Time:      68.74 s
       Pressure Iterations:      4
       Maximum Velocity Error:  0.88E-02 on Mesh   3 at (  31  28   3)
       Maximum Pressure Error:  0.18E+04 on Mesh   3 at (  36  20   1)
       ---------------------------------------------------------------
       Mesh    1
       Max CFL number:  0.60E+00 at (  38,   6,  69)
       Max divergence:  0.54E+00 at (  40,  13,  60)
       Min divergence: -0.44E+00 at (  27,   2,  71)
       Max VN number:   0.13E+00 at (  39,  11,  51)
       Radiation Loss to Boundaries:        -0.132 kW
       Mesh    2
       Max CFL number:  0.44E+00 at (  35,   6,  44)
       Max divergence:  0.63E+00 at (  26,  10,  41)
       Min divergence: -0.46E+00 at (  35,   8,  24)
       Max VN number:   0.18E+00 at (  40,  14,  44)
       Radiation Loss to Boundaries:        -0.243 kW
       Mesh    3
       Max CFL number:  0.64E+00 at (  37,  19,   1)
       Max divergence:  0.28E+02 at (  37,  18,   1)
       Min divergence: -0.25E+01 at (  34,  27,   5)
       Max div. error:  0.10E-07 at (  67,  27,  53)
       Max VN number:   0.17E+00 at (  36,  27,  15)
       Total Heat Release Rate:             32.242 kW
       Radiation Loss to Boundaries:        -2.423 kW
       Mesh    4
       Max CFL number:  0.91E+00 at (  33,   7,  30)
       Max divergence:  0.13E+02 at (  36,   2,   2)
       Min divergence: -0.68E+01 at (  36,   5,  14)
       Max div. error:  0.11E-07 at (  67,   1,  53)
       Max VN number:   0.26E+00 at (  36,   6,  14)
       Total Heat Release Rate:             29.841 kW
       Radiation Loss to Boundaries:        -8.879 kW
 
       Time Step   11300   November  2, 2020  14:31:14
       Step Size:    0.670E-02 s, Total Time:      69.37 s
       Pressure Iterations:      5
       Maximum Velocity Error:  0.15E-01 on Mesh   3 at (  32  28   1)
       Maximum Pressure Error:  0.12E+04 on Mesh   3 at (  35  24   1)
       ---------------------------------------------------------------
       Mesh    1
       Max CFL number:  0.61E+00 at (  47,   8,  73)
       Max divergence:  0.83E+00 at (  46,   7,  77)
       Min divergence: -0.59E+00 at (  49,  19,  64)
       Max VN number:   0.20E+00 at (  49,  19,  64)
       Radiation Loss to Boundaries:        -0.121 kW
       Mesh    2
       Max CFL number:  0.46E+00 at (  38,   5,  44)
       Max divergence:  0.71E+00 at (  26,  10,  41)
       Min divergence: -0.73E+00 at (  26,  10,  43)
       Max VN number:   0.18E+00 at (  41,  13,  45)
       Radiation Loss to Boundaries:        -0.212 kW
       Mesh    3
       Max CFL number:  0.55E+00 at (  36,  27,   2)
       Max divergence:  0.21E+02 at (  37,  24,   1)
       Min divergence: -0.22E+01 at (  36,  23,   4)
       Max div. error:  0.10E-07 at (  67,  27,  53)
       Max VN number:   0.16E+00 at (  33,  26,  42)
       Total Heat Release Rate:             36.185 kW
       Radiation Loss to Boundaries:        -3.294 kW
       Mesh    4
       Max CFL number:  0.94E+00 at (  33,   9,  18)
       Max divergence:  0.14E+02 at (  32,   5,   1)
       Min divergence: -0.49E+01 at (  33,   5,   3)
       Max div. error:  0.11E-07 at (  67,   1,  53)
       Max VN number:   0.27E+00 at (  33,  10,  18)
       Total Heat Release Rate:             29.169 kW
       Radiation Loss to Boundaries:        -8.428 kW
 
       Time Step   11400   November  2, 2020  14:32:35
       Step Size:    0.858E-02 s, Total Time:      70.12 s
       Pressure Iterations:      3
       Maximum Velocity Error:  0.16E-01 on Mesh   3 at (  33  28   1)
       Maximum Pressure Error:  0.12E+04 on Mesh   3 at (  31  22   1)
       ---------------------------------------------------------------
       Mesh    1
       Max CFL number:  0.80E+00 at (  39,   7,  71)
       Max divergence:  0.56E+00 at (  31,  11,  67)
       Min divergence: -0.68E+00 at (  30,  10,  66)
       Max VN number:   0.20E+00 at (  30,  11,  69)
       Radiation Loss to Boundaries:        -0.104 kW
       Mesh    2
       Max CFL number:  0.51E+00 at (  41,   1,  42)
       Max divergence:  0.45E+00 at (  27,   9,  45)
       Min divergence: -0.38E+00 at (  29,   9,  45)
       Max VN number:   0.22E+00 at (  30,  13,  45)
       Radiation Loss to Boundaries:        -0.245 kW
       Mesh    3
       Max CFL number:  0.60E+00 at (  35,  21,   1)
       Max divergence:  0.25E+02 at (  34,  18,   1)
       Min divergence: -0.13E+01 at (  31,  24,   1)
       Max div. error:  0.11E-07 at (  67,  27,  53)
       Max VN number:   0.16E+00 at (  31,  27,  53)
       Total Heat Release Rate:             33.204 kW
       Radiation Loss to Boundaries:        -2.260 kW
       Mesh    4
       Max CFL number:  0.91E+00 at (  34,  11,   6)
       Max divergence:  0.15E+02 at (  36,   5,   3)
       Min divergence: -0.41E+01 at (  32,  12,  11)
       Max div. error:  0.11E-07 at (  67,   1,  53)
       Max VN number:   0.27E+00 at (  36,   4,   3)
       Total Heat Release Rate:             42.251 kW
       Radiation Loss to Boundaries:       -12.137 kW
 
       Time Step   11500   November  2, 2020  14:33:55
       Step Size:    0.695E-02 s, Total Time:      70.81 s
       Pressure Iterations:      4
       Maximum Velocity Error:  0.13E-01 on Mesh   3 at (  30  28   2)
       Maximum Pressure Error:  0.12E+04 on Mesh   3 at (  31  22   1)
       ---------------------------------------------------------------
       Mesh    1
       Max CFL number:  0.64E+00 at (  38,   3,  78)
       Max divergence:  0.71E+00 at (  37,  17,  60)
       Min divergence: -0.77E+00 at (  28,  19,  74)
       Max VN number:   0.15E+00 at (  47,  17,  68)
       Radiation Loss to Boundaries:        -0.106 kW
       Mesh    2
       Max CFL number:  0.46E+00 at (  33,   2,  44)
       Max divergence:  0.69E+00 at (  30,  10,  44)
       Min divergence: -0.43E+00 at (  27,  10,  44)
       Max VN number:   0.18E+00 at (  30,  13,  45)
       Radiation Loss to Boundaries:        -0.203 kW
       Mesh    3
       Max CFL number:  0.47E+00 at (  36,  27,   1)
       Max divergence:  0.18E+02 at (  33,  18,   1)
       Min divergence: -0.24E+01 at (  36,  20,   1)
       Max div. error:  0.11E-07 at (  67,  27,  53)
       Max VN number:   0.14E+00 at (   1,  13,  53)
       Total Heat Release Rate:             28.307 kW
       Radiation Loss to Boundaries:        -2.278 kW
       Mesh    4
       Max CFL number:  0.90E+00 at (  34,  10,   9)
       Max divergence:  0.14E+02 at (  31,   1,   1)
       Min divergence: -0.61E+01 at (  34,   8,  11)
       Max div. error:  0.11E-07 at (  67,   1,  53)
       Max VN number:   0.27E+00 at (  34,  12,  13)
       Total Heat Release Rate:             25.430 kW
       Radiation Loss to Boundaries:        -6.579 kW
 
       Time Step   11600   November  2, 2020  14:35:13
       Step Size:    0.747E-02 s, Total Time:      71.48 s
       Pressure Iterations:      2
       Maximum Velocity Error:  0.17E-01 on Mesh   4 at (  32   0   2)
       Maximum Pressure Error:  0.78E+03 on Mesh   3 at (  31  21   1)
       ---------------------------------------------------------------
       Mesh    1
       Max CFL number:  0.64E+00 at (  40,   8,  74)
       Max divergence:  0.57E+00 at (  39,   5,  69)
       Min divergence: -0.52E+00 at (  50,  10,  71)
       Max VN number:   0.17E+00 at (  29,   3,  74)
       Radiation Loss to Boundaries:        -0.135 kW
       Mesh    2
       Max CFL number:  0.49E+00 at (  37,   5,  44)
       Max divergence:  0.63E+00 at (  42,   9,  43)
       Min divergence: -0.66E+00 at (  42,  10,  44)
       Max VN number:   0.18E+00 at (  41,  13,  44)
       Radiation Loss to Boundaries:        -0.230 kW
       Mesh    3
       Max CFL number:  0.54E+00 at (  36,  18,   1)
       Max divergence:  0.23E+02 at (  36,  18,   1)
       Min divergence: -0.24E+01 at (  33,  21,   1)
       Max div. error:  0.11E-07 at (  67,  27,  53)
       Max VN number:   0.11E+00 at (  29,  25,   1)
       Total Heat Release Rate:             30.288 kW
       Radiation Loss to Boundaries:        -2.254 kW
       Mesh    4
       Max CFL number:  0.79E+00 at (  31,  18,  28)
       Max divergence:  0.16E+02 at (  32,   5,   4)
       Min divergence: -0.71E+01 at (  34,   8,   6)
       Max div. error:  0.11E-07 at (  67,   1,  53)
       Max VN number:   0.28E+00 at (  31,  18,  27)
       Total Heat Release Rate:             46.548 kW
       Radiation Loss to Boundaries:       -11.266 kW
 
       Time Step   11700   November  2, 2020  14:36:32
       Step Size:    0.671E-02 s, Total Time:      72.17 s
       Pressure Iterations:      3
       Maximum Velocity Error:  0.14E-01 on Mesh   3 at (  36  28   2)
       Maximum Pressure Error:  0.75E+03 on Mesh   4 at (  35   3   4)
       ---------------------------------------------------------------
       Mesh    1
       Max CFL number:  0.59E+00 at (  35,   5,  67)
       Max divergence:  0.48E+00 at (  26,  26,  37)
       Min divergence: -0.55E+00 at (  24,  12,  74)
       Max VN number:   0.13E+00 at (  36,   5,  65)
       Radiation Loss to Boundaries:        -0.103 kW
       Mesh    2
       Max CFL number:  0.40E+00 at (  37,   1,  45)
       Max divergence:  0.61E+00 at (  26,  10,  44)
       Min divergence: -0.57E+00 at (  40,   2,  40)
       Max div. error:  0.10E-07 at (  67,  27,  53)
       Max VN number:   0.17E+00 at (  26,  13,  44)
       Radiation Loss to Boundaries:        -0.198 kW
       Mesh    3
       Max CFL number:  0.53E+00 at (  36,  26,   1)
       Max divergence:  0.16E+02 at (  33,  18,   1)
       Min divergence: -0.21E+01 at (  31,  21,   1)
       Max div. error:  0.11E-07 at (  67,  27,  53)
       Max VN number:   0.11E+00 at (  38,  27,   1)
       Total Heat Release Rate:             29.572 kW
       Radiation Loss to Boundaries:        -1.837 kW
       Mesh    4
       Max CFL number:  0.93E+00 at (  29,   9,  24)
       Max divergence:  0.16E+02 at (  33,   7,   2)
       Min divergence: -0.48E+01 at (  33,   4,  14)
       Max div. error:  0.11E-07 at (  67,   1,  53)
       Max VN number:   0.25E+00 at (  31,   6,  30)
       Total Heat Release Rate:             29.199 kW
       Radiation Loss to Boundaries:        -7.985 kW
 
       Time Step   11800   November  2, 2020  14:37:50
       Step Size:    0.719E-02 s, Total Time:      72.87 s
       Pressure Iterations:      2
       Maximum Velocity Error:  0.20E-01 on Mesh   3 at (  36  28   4)
       Maximum Pressure Error:  0.13E+04 on Mesh   4 at (  34   6   1)
       ---------------------------------------------------------------
       Mesh    1
       Max CFL number:  0.69E+00 at (  30,   5,  77)
       Max divergence:  0.66E+00 at (  24,  12,  57)
       Min divergence: -0.52E+00 at (  34,  11,  71)
       Max VN number:   0.16E+00 at (  27,  14,  65)
       Radiation Loss to Boundaries:        -0.126 kW
       Mesh    2
       Max CFL number:  0.48E+00 at (  33,   7,  44)
       Max divergence:  0.47E+00 at (  33,   9,  45)
       Min divergence: -0.38E+00 at (  34,  10,  44)
       Max div. error:  0.10E-07 at (  67,  27,  53)
       Max VN number:   0.20E+00 at (  40,  13,  45)
       Radiation Loss to Boundaries:        -0.268 kW
       Mesh    3
       Max CFL number:  0.52E+00 at (  36,  26,   3)
       Max divergence:  0.20E+02 at (  32,  18,   1)
       Min divergence: -0.13E+01 at (  33,  27,  11)
       Max div. error:  0.11E-07 at (  67,  27,  53)
       Max VN number:   0.12E+00 at (  36,  27,   3)
       Total Heat Release Rate:             32.719 kW
       Radiation Loss to Boundaries:        -1.729 kW
       Mesh    4
       Max CFL number:  0.85E+00 at (  34,  14,  28)
       Max divergence:  0.19E+02 at (  31,   4,   2)
       Min divergence: -0.35E+01 at (  33,   4,  12)
       Max div. error:  0.11E-07 at (  67,   1,  53)
       Max VN number:   0.27E+00 at (  34,  21,  30)
       Total Heat Release Rate:             42.429 kW
       Radiation Loss to Boundaries:       -11.613 kW
 
       Time Step   11900   November  2, 2020  14:39:11
       Step Size:    0.677E-02 s, Total Time:      73.53 s
       Pressure Iterations:      3
       Maximum Velocity Error:  0.14E-01 on Mesh   3 at (  37  28   3)
       Maximum Pressure Error:  0.23E+04 on Mesh   4 at (  33  14  21)
       ---------------------------------------------------------------
       Mesh    1
       Max CFL number:  0.68E+00 at (  26,   7,  71)
       Max divergence:  0.77E+00 at (  40,  21,  45)
       Min divergence: -0.62E+00 at (  24,  19,  66)
       Max VN number:   0.20E+00 at (  24,  19,  66)
       Radiation Loss to Boundaries:        -0.105 kW
       Mesh    2
       Max CFL number:  0.42E+00 at (  35,   7,  44)
       Max divergence:  0.52E+00 at (  27,   7,  43)
       Min divergence: -0.39E+00 at (  26,   8,  42)
       Max div. error:  0.10E-07 at (  67,  27,  53)
       Max VN number:   0.18E+00 at (  26,  13,  44)
       Radiation Loss to Boundaries:        -0.214 kW
       Mesh    3
       Max CFL number:  0.46E+00 at (  37,  27,   2)
       Max divergence:  0.22E+02 at (  33,  18,   1)
       Min divergence: -0.16E+01 at (  33,  22,   1)
       Max div. error:  0.11E-07 at (  67,  27,  53)
       Max VN number:   0.10E+00 at (  34,  27,   2)
       Total Heat Release Rate:             29.712 kW
       Radiation Loss to Boundaries:        -2.113 kW
       Mesh    4
       Max CFL number:  0.91E+00 at (  33,  13,  22)
       Max divergence:  0.15E+02 at (  34,   6,   2)
       Min divergence: -0.62E+01 at (  33,  13,  22)
       Max div. error:  0.11E-07 at (  67,   1,  53)
       Max VN number:   0.26E+00 at (  33,  14,  20)
       Total Heat Release Rate:             35.602 kW
       Radiation Loss to Boundaries:        -9.932 kW
 
       Time Step   12000   November  2, 2020  14:40:28
       Step Size:    0.560E-02 s, Total Time:      74.17 s
       Pressure Iterations:      3
       Maximum Velocity Error:  0.14E-01 on Mesh   3 at (  32  28   2)
       Maximum Pressure Error:  0.88E+03 on Mesh   3 at (  32  22   1)
       ---------------------------------------------------------------
       Mesh    1
       Max CFL number:  0.52E+00 at (  35,  19,  59)
       Max divergence:  0.83E+00 at (  30,  17,  54)
       Min divergence: -0.68E+00 at (  30,  18,  63)
       Max VN number:   0.15E+00 at (  29,  22,  54)
       Radiation Loss to Boundaries:        -0.107 kW
       Mesh    2
       Max CFL number:  0.35E+00 at (  38,   1,  44)
       Max divergence:  0.61E+00 at (  42,  10,  39)
       Min divergence: -0.42E+00 at (  26,   8,  45)
       Max div. error:  0.10E-07 at (  67,  27,  53)
       Max VN number:   0.15E+00 at (  38,  13,  45)
       Radiation Loss to Boundaries:        -0.190 kW
       Mesh    3
       Max CFL number:  0.42E+00 at (  32,  19,   1)
       Max divergence:  0.20E+02 at (  34,  18,   1)
       Min divergence: -0.28E+01 at (  32,  22,   1)
       Max div. error:  0.11E-07 at (  67,  27,  53)
       Max VN number:   0.79E-01 at (  28,  27,   1)
       Total Heat Release Rate:             29.810 kW
       Radiation Loss to Boundaries:        -1.682 kW
       Mesh    4
       Max CFL number:  0.95E+00 at (  32,   9,  12)
       Max divergence:  0.16E+02 at (  31,   5,   1)
       Min divergence: -0.50E+01 at (  31,  10,  15)
       Max div. error:  0.12E-07 at (  67,   1,  53)
       Max VN number:   0.26E+00 at (  31,  10,  15)
       Total Heat Release Rate:             35.410 kW
       Radiation Loss to Boundaries:        -8.924 kW
 
       Time Step   12100   November  2, 2020  14:41:45
       Step Size:    0.601E-02 s, Total Time:      74.75 s
       Pressure Iterations:      4
       Maximum Velocity Error:  0.11E-01 on Mesh   3 at (  30  28   2)
       Maximum Pressure Error:  0.64E+03 on Mesh   3 at (  32  23   1)
       ---------------------------------------------------------------
       Mesh    1
       Max CFL number:  0.52E+00 at (  30,  14,  72)
       Max divergence:  0.60E+00 at (  44,  23,  52)
       Min divergence: -0.61E+00 at (  38,  19,  50)
       Max VN number:   0.12E+00 at (  29,  20,  58)
       Radiation Loss to Boundaries:        -0.129 kW
       Mesh    2
       Max CFL number:  0.38E+00 at (  38,   3,  44)
       Max divergence:  0.46E+00 at (  41,   8,  40)
       Min divergence: -0.33E+00 at (  40,   1,  54)
       Max div. error:  0.10E-07 at (  67,  27,  53)
       Max VN number:   0.16E+00 at (  37,  13,  45)
       Radiation Loss to Boundaries:        -0.169 kW
       Mesh    3
       Max CFL number:  0.42E+00 at (  34,  27,   1)
       Max divergence:  0.19E+02 at (  32,  18,   1)
       Min divergence: -0.14E+01 at (  34,  22,   1)
       Max div. error:  0.11E-07 at (  67,  27,  53)
       Max VN number:   0.86E-01 at (  37,  25,   1)
       Total Heat Release Rate:             28.271 kW
       Radiation Loss to Boundaries:        -1.662 kW
       Mesh    4
       Max CFL number:  0.88E+00 at (  34,  19,  33)
       Max divergence:  0.15E+02 at (  33,   9,   1)
       Min divergence: -0.41E+01 at (  34,  12,   8)
       Max div. error:  0.12E-07 at (  67,   1,  53)
       Max VN number:   0.26E+00 at (  32,  15,  40)
       Total Heat Release Rate:             29.954 kW
       Radiation Loss to Boundaries:        -8.258 kW
 
       Time Step   12140   November  2, 2020  14:42:19
       Step Size:    0.351E-02 s, Total Time:      75.00 s
       Pressure Iterations:      3
       Maximum Velocity Error:  0.11E-01 on Mesh   3 at (  36  28   1)
       Maximum Pressure Error:  0.75E+03 on Mesh   3 at (  34  26   1)
       ---------------------------------------------------------------
       Mesh    1
       Max CFL number:  0.33E+00 at (  34,   7,  78)
       Max divergence:  0.53E+00 at (  38,  11,  67)
       Min divergence: -0.54E+00 at (  22,  17,  64)
       Max VN number:   0.84E-01 at (  39,  12,  59)
       Radiation Loss to Boundaries:        -0.128 kW
       Mesh    2
       Max CFL number:  0.24E+00 at (  35,   2,  45)
       Max divergence:  0.57E+00 at (  26,   2,  46)
       Min divergence: -0.41E+00 at (  30,   1,  51)
       Max div. error:  0.10E-07 at (  67,  27,  53)
       Max VN number:   0.92E-01 at (  40,  13,  45)
       Radiation Loss to Boundaries:        -0.181 kW
       Mesh    3
       Max CFL number:  0.22E+00 at (  34,  27,   2)
       Max divergence:  0.20E+02 at (  31,  18,   1)
       Min divergence: -0.19E+01 at (  37,  27,   6)
       Max div. error:  0.11E-07 at (  67,  27,  53)
       Max VN number:   0.75E-01 at (  35,  27,   3)
       Total Heat Release Rate:             31.648 kW
       Radiation Loss to Boundaries:        -2.520 kW
       Mesh    4
       Max CFL number:  0.42E+00 at (  32,  14,  23)
       Max divergence:  0.13E+02 at (  34,   4,   1)
       Min divergence: -0.40E+01 at (  32,  12,  13)
       Max div. error:  0.12E-07 at (  67,   1,  53)
       Max VN number:   0.13E+00 at (  34,  14,  21)
       Total Heat Release Rate:             29.287 kW
       Radiation Loss to Boundaries:        -7.589 kW
 


 Time Stepping Wall Clock Time (s):     9710.985
 Total Elapsed Wall Clock Time (s):     9722.754

STOP: FDS completed successfully (CHID: Steckler)
