
 Fire Dynamics Simulator

 Current Date     : November  1, 2020  16:47:22
 Revision         : FDS6.7.5-0-g71f025606-release
 Revision Date    : Thu Aug 20 16:19:01 2020 -0400
 Compiler         : Intel ifort 19.1.1.216
 Compilation Date : Fri 08/21/2020  04:51 PM

 MPI Enabled;    Number of MPI Processes:       1
 OpenMP Enabled; Number of OpenMP Threads:      2

 MPI version: 3.1
 MPI library version: Intel(R) MPI Library 2017 Update 2 for Windows* OS


 Job TITLE        : Heat Transfer through solid Slab
 Job ID string    : heat_conduction_a


 Grid Dimensions, Mesh     1

   Cells in the X Direction             3
   Cells in the Y Direction             3
   Cells in the Z Direction             3
   Number of Grid Cells                27


 Physical Dimensions, Mesh     1

   Length (m)                       0.300
   Width  (m)                       0.300
   Height (m)                       0.300
   Initial Time Step (s)            1.000

Total Number of Grid Cells            27


 Miscellaneous Parameters

   Simulation Start Time (s)          0.0
   Simulation End Time (s)       630000.0
   LES Calculation
   Eddy Viscosity:           Deardorff Model (C_DEARDORFF = 0.10)
   Near-wall Eddy Viscosity: Smagorinsky with Van Driest damping (C_SMAGORINSKY = 0.20)
   Turbulent Prandtl Number:         0.50
   Turbulent Schmidt Number:         0.50
   Ambient Temperature (C):         20.00


 Mass Fraction Transformation Matrix to Convert Species Mixtures (Columns) to Primitive Species (Rows)

                         AIR     
   NITROGEN              0.762470
   OXYGEN                0.230997
   CARBON DIOXIDE        0.000591
   WATER VAPOR           0.005941


 Primitive Species Information

   NITROGEN
   Gas Species
   Molecular Weight (g/mol)            28.01340
   Ambient Density (kg/m^3)            1.165
   Enthalpy of Formation (J/kg)        0.00E+00

   OXYGEN
   Gas Species
   Molecular Weight (g/mol)            31.99880
   Ambient Density (kg/m^3)            1.330
   Enthalpy of Formation (J/kg)        0.00E+00

   CARBON DIOXIDE
   Gas Species
   Molecular Weight (g/mol)            44.00950
   Ambient Density (kg/m^3)            1.830
   Enthalpy of Formation (J/kg)       -8.94E+06

   WATER VAPOR
   Gas Species
   Molecular Weight (g/mol)            18.01528
   Ambient Density (kg/m^3)            0.749
   Enthalpy of Formation (J/kg)       -1.34E+07


 Tracked (Lumped) Species Information

   AIR
   Molecular Weight (g/mol)            28.75199
   Ambient Density (kg/m^3)            1.195
   Initial Mass Fraction               1.000
   Enthalpy of Formation (J/kg)     -8.50E+04

   Sub Species                    Mass Fraction     Mole Fraction
   NITROGEN                       7.624701E-01      7.825730E-01
   OXYGEN                         2.309974E-01      2.075589E-01
   CARBON DIOXIDE                 5.914651E-04      3.864120E-04
   WATER VAPOR                    5.940984E-03      9.481679E-03
 
     Viscosity (kg/m/s) Ambient,  293 K:  1.80E-05
                                  500 K:  2.61E-05
                                 1000 K:  4.13E-05
                                 1500 K:  5.37E-05
   Therm. Cond. (W/m/K) Ambient,  293 K:  2.56E-02
                                  500 K:  3.81E-02
                                 1000 K:  6.69E-02
                                 1500 K:  9.25E-02
        Enthalpy (J/kg) Ambient,  293 K: -9.01E+04
                                  500 K:  1.22E+05
                                 1000 K:  6.72E+05
                                 1500 K:  1.27E+06
    Spec. Heat (J/kg/K) Ambient,  293 K:  1.02E+03
                                  500 K:  1.04E+03
                                 1000 K:  1.16E+03
                                 1500 K:  1.23E+03
   Diff. Coeff. (m^2/s) Ambient,  293 K:  1.99E-05
                                  500 K:  4.96E-05
                                 1000 K:  1.58E-04
                                 1500 K:  3.09E-04


 Material Information

   1 SLAB_A                                                      
     Emissivity                      0.000
     Density (kg/m3)                 500.0
     Specific Heat (kJ/kg/K)      1.00E+00
     Conductivity (W/m/K)          1.50E-01


 Surface Conditions

   0 INERT (DEFAULT)

   1 SLAB
     Material List
          1  SLAB_A
     Layer  1
        Thickness   (m):  0.30000
        Density (kg/m3):   500.00
        SLAB_A, Mass fraction:    1.00
     Total surface density   150.000 kg/m2
     Solid Phase Node, Layer, Coordinates(m):
                    0      1       0.0000000
                    1      1       0.0003916
                    2      1       0.0011749
                    3      1       0.0027415
                    4      1       0.0058747
                    5      1       0.0121410
                    6      1       0.0246736
                    7      1       0.0497389
                    8      1       0.0998695
                    9      1       0.2001305
                   10      1       0.2502611
                   11      1       0.2753264
                   12      1       0.2878590
                   13      1       0.2941253
                   14      1       0.2972585
                   15      1       0.2988251
                   16      1       0.2996084
                   17      1       0.3000000
     Insulated Backing

   2 OPEN
     Passive Vent to Atmosphere

   3 MIRROR
     Symmetry Plane

   4 INTERPOLATED

   5 PERIODIC

   6 HVAC

   7 MASSLESS TRACER

   8 DROPLET

   9 EVACUATION_OUTFLOW
     Normal Velocity (m/s)         0.000

  10 MASSLESS TARGET

  11 PERIODIC FLOW ONLY


 Device Coordinates

     1 Coords:      0.000000      0.000000      0.001000, Make: null, ID: Back, Quantity: BACK WALL TEMPERATURE
     2 Coords:      0.000000      0.000000      0.001000, Make: null, ID: Front, Quantity: WALL TEMPERATURE


 Boundary File Information

   Sampling Interval (s)          1260.000

   1 Quantity: WALL TEMPERATURE


 Radiation Model Information

   Number of control angles  104
   Time step increment         3
   Angle increment             5
   Theta band N_phi   Solid angle
     1:        4     0.120
     2:       12     0.114
     3:       16     0.127
     4:       20     0.120
     5:       20     0.120
     6:       16     0.127
     7:       12     0.114
     8:        4     0.120
 
 

 Run Time Diagnostics

       Time Step       1   November  1, 2020  16:47:22
       Step Size:    0.100E+01 s, Total Time:       1.00 s
       Pressure Iterations:      1
       Maximum Velocity Error:  0.00E+00 on Mesh   1 at (   0   0   0)
       Maximum Pressure Error:  0.00E+00 on Mesh   1 at (   0   0   0)
       ---------------------------------------------------------------
       Max CFL number:  0.00E+00 at (   0,   0,   0)
       Max divergence:  0.28E-16 at (   3,   2,   1)
       Min divergence: -0.21E-16 at (   2,   2,   1)
       Max VN number:   0.00E+00 at (   0,   0,   0)
 
       Time Step       2   November  1, 2020  16:47:22
       Step Size:    0.100E+01 s, Total Time:       2.00 s
       Pressure Iterations:      1
       Maximum Velocity Error:  0.00E+00 on Mesh   1 at (   0   0   0)
       Maximum Pressure Error:  0.00E+00 on Mesh   1 at (   0   0   0)
       ---------------------------------------------------------------
       Max CFL number:  0.00E+00 at (   0,   0,   0)
       Max divergence:  0.28E-16 at (   3,   2,   1)
       Min divergence: -0.21E-16 at (   2,   2,   1)
       Max VN number:   0.00E+00 at (   0,   0,   0)
 
       Time Step       3   November  1, 2020  16:47:22
       Step Size:    0.100E+01 s, Total Time:       3.00 s
       Pressure Iterations:      1
       Maximum Velocity Error:  0.00E+00 on Mesh   1 at (   0   0   0)
       Maximum Pressure Error:  0.00E+00 on Mesh   1 at (   0   0   0)
       ---------------------------------------------------------------
       Max CFL number:  0.00E+00 at (   0,   0,   0)
       Max divergence:  0.28E-16 at (   3,   2,   1)
       Min divergence: -0.21E-16 at (   2,   2,   1)
       Max VN number:   0.00E+00 at (   0,   0,   0)
 
       Time Step       4   November  1, 2020  16:47:22
       Step Size:    0.100E+01 s, Total Time:       4.00 s
       Pressure Iterations:      1
       Maximum Velocity Error:  0.00E+00 on Mesh   1 at (   0   0   0)
       Maximum Pressure Error:  0.00E+00 on Mesh   1 at (   0   0   0)
       ---------------------------------------------------------------
       Max CFL number:  0.00E+00 at (   0,   0,   0)
       Max divergence:  0.28E-16 at (   3,   2,   1)
       Min divergence: -0.21E-16 at (   2,   2,   1)
       Max VN number:   0.00E+00 at (   0,   0,   0)
 
       Time Step       5   November  1, 2020  16:47:22
       Step Size:    0.100E+01 s, Total Time:       5.00 s
       Pressure Iterations:      1
       Maximum Velocity Error:  0.00E+00 on Mesh   1 at (   0   0   0)
       Maximum Pressure Error:  0.00E+00 on Mesh   1 at (   0   0   0)
       ---------------------------------------------------------------
       Max CFL number:  0.00E+00 at (   0,   0,   0)
       Max divergence:  0.28E-16 at (   3,   2,   1)
       Min divergence: -0.21E-16 at (   2,   2,   1)
       Max VN number:   0.00E+00 at (   0,   0,   0)
 
       Time Step       6   November  1, 2020  16:47:22
       Step Size:    0.100E+01 s, Total Time:       6.00 s
       Pressure Iterations:      1
       Maximum Velocity Error:  0.00E+00 on Mesh   1 at (   0   0   0)
       Maximum Pressure Error:  0.00E+00 on Mesh   1 at (   0   0   0)
       ---------------------------------------------------------------
       Max CFL number:  0.00E+00 at (   0,   0,   0)
       Max divergence:  0.28E-16 at (   3,   2,   1)
       Min divergence: -0.21E-16 at (   2,   2,   1)
       Max VN number:   0.00E+00 at (   0,   0,   0)
 
       Time Step       7   November  1, 2020  16:47:22
       Step Size:    0.100E+01 s, Total Time:       7.00 s
       Pressure Iterations:      1
       Maximum Velocity Error:  0.00E+00 on Mesh   1 at (   0   0   0)
       Maximum Pressure Error:  0.00E+00 on Mesh   1 at (   0   0   0)
       ---------------------------------------------------------------
       Max CFL number:  0.00E+00 at (   0,   0,   0)
       Max divergence:  0.28E-16 at (   3,   2,   1)
       Min divergence: -0.21E-16 at (   2,   2,   1)
       Max VN number:   0.00E+00 at (   0,   0,   0)
 
       Time Step       8   November  1, 2020  16:47:22
       Step Size:    0.100E+01 s, Total Time:       8.00 s
       Pressure Iterations:      1
       Maximum Velocity Error:  0.00E+00 on Mesh   1 at (   0   0   0)
       Maximum Pressure Error:  0.00E+00 on Mesh   1 at (   0   0   0)
       ---------------------------------------------------------------
       Max CFL number:  0.00E+00 at (   0,   0,   0)
       Max divergence:  0.28E-16 at (   3,   2,   1)
       Min divergence: -0.21E-16 at (   2,   2,   1)
       Max VN number:   0.00E+00 at (   0,   0,   0)
 
       Time Step       9   November  1, 2020  16:47:22
       Step Size:    0.100E+01 s, Total Time:       9.00 s
       Pressure Iterations:      1
       Maximum Velocity Error:  0.00E+00 on Mesh   1 at (   0   0   0)
       Maximum Pressure Error:  0.00E+00 on Mesh   1 at (   0   0   0)
       ---------------------------------------------------------------
       Max CFL number:  0.00E+00 at (   0,   0,   0)
       Max divergence:  0.28E-16 at (   3,   2,   1)
       Min divergence: -0.21E-16 at (   2,   2,   1)
       Max VN number:   0.00E+00 at (   0,   0,   0)
 
       Time Step      10   November  1, 2020  16:47:22
       Step Size:    0.100E+01 s, Total Time:      10.00 s
       Pressure Iterations:      1
       Maximum Velocity Error:  0.00E+00 on Mesh   1 at (   0   0   0)
       Maximum Pressure Error:  0.00E+00 on Mesh   1 at (   0   0   0)
       ---------------------------------------------------------------
       Max CFL number:  0.00E+00 at (   0,   0,   0)
       Max divergence:  0.28E-16 at (   3,   2,   1)
       Min divergence: -0.21E-16 at (   2,   2,   1)
       Max VN number:   0.00E+00 at (   0,   0,   0)
 
       Time Step      20   November  1, 2020  16:47:22
       Step Size:    0.100E+01 s, Total Time:      20.00 s
       Pressure Iterations:      1
       Maximum Velocity Error:  0.00E+00 on Mesh   1 at (   0   0   0)
       Maximum Pressure Error:  0.00E+00 on Mesh   1 at (   0   0   0)
       ---------------------------------------------------------------
       Max CFL number:  0.00E+00 at (   0,   0,   0)
       Max divergence:  0.28E-16 at (   3,   2,   1)
       Min divergence: -0.21E-16 at (   2,   2,   1)
       Max VN number:   0.00E+00 at (   0,   0,   0)
 
       Time Step      30   November  1, 2020  16:47:22
       Step Size:    0.100E+01 s, Total Time:      30.00 s
       Pressure Iterations:      1
       Maximum Velocity Error:  0.00E+00 on Mesh   1 at (   0   0   0)
       Maximum Pressure Error:  0.00E+00 on Mesh   1 at (   0   0   0)
       ---------------------------------------------------------------
       Max CFL number:  0.00E+00 at (   0,   0,   0)
       Max divergence:  0.28E-16 at (   3,   2,   1)
       Min divergence: -0.21E-16 at (   2,   2,   1)
       Max VN number:   0.00E+00 at (   0,   0,   0)
 
       Time Step      40   November  1, 2020  16:47:22
       Step Size:    0.100E+01 s, Total Time:      40.00 s
       Pressure Iterations:      1
       Maximum Velocity Error:  0.00E+00 on Mesh   1 at (   0   0   0)
       Maximum Pressure Error:  0.00E+00 on Mesh   1 at (   0   0   0)
       ---------------------------------------------------------------
       Max CFL number:  0.00E+00 at (   0,   0,   0)
       Max divergence:  0.28E-16 at (   3,   2,   1)
       Min divergence: -0.21E-16 at (   2,   2,   1)
       Max VN number:   0.00E+00 at (   0,   0,   0)
 
       Time Step      50   November  1, 2020  16:47:22
       Step Size:    0.100E+01 s, Total Time:      50.00 s
       Pressure Iterations:      1
       Maximum Velocity Error:  0.00E+00 on Mesh   1 at (   0   0   0)
       Maximum Pressure Error:  0.00E+00 on Mesh   1 at (   0   0   0)
       ---------------------------------------------------------------
       Max CFL number:  0.00E+00 at (   0,   0,   0)
       Max divergence:  0.28E-16 at (   3,   2,   1)
       Min divergence: -0.21E-16 at (   2,   2,   1)
       Max VN number:   0.00E+00 at (   0,   0,   0)
 
       Time Step      60   November  1, 2020  16:47:22
       Step Size:    0.100E+01 s, Total Time:      60.00 s
       Pressure Iterations:      1
       Maximum Velocity Error:  0.00E+00 on Mesh   1 at (   0   0   0)
       Maximum Pressure Error:  0.00E+00 on Mesh   1 at (   0   0   0)
       ---------------------------------------------------------------
       Max CFL number:  0.00E+00 at (   0,   0,   0)
       Max divergence:  0.28E-16 at (   3,   2,   1)
       Min divergence: -0.21E-16 at (   2,   2,   1)
       Max VN number:   0.00E+00 at (   0,   0,   0)
 
       Time Step      70   November  1, 2020  16:47:22
       Step Size:    0.100E+01 s, Total Time:      70.00 s
       Pressure Iterations:      1
       Maximum Velocity Error:  0.00E+00 on Mesh   1 at (   0   0   0)
       Maximum Pressure Error:  0.00E+00 on Mesh   1 at (   0   0   0)
       ---------------------------------------------------------------
       Max CFL number:  0.00E+00 at (   0,   0,   0)
       Max divergence:  0.28E-16 at (   3,   2,   1)
       Min divergence: -0.21E-16 at (   2,   2,   1)
       Max VN number:   0.00E+00 at (   0,   0,   0)
 
       Time Step      80   November  1, 2020  16:47:22
       Step Size:    0.100E+01 s, Total Time:      80.00 s
       Pressure Iterations:      1
       Maximum Velocity Error:  0.00E+00 on Mesh   1 at (   0   0   0)
       Maximum Pressure Error:  0.00E+00 on Mesh   1 at (   0   0   0)
       ---------------------------------------------------------------
       Max CFL number:  0.00E+00 at (   0,   0,   0)
       Max divergence:  0.28E-16 at (   3,   2,   1)
       Min divergence: -0.21E-16 at (   2,   2,   1)
       Max VN number:   0.00E+00 at (   0,   0,   0)
 
       Time Step      90   November  1, 2020  16:47:22
       Step Size:    0.100E+01 s, Total Time:      90.00 s
       Pressure Iterations:      1
       Maximum Velocity Error:  0.00E+00 on Mesh   1 at (   0   0   0)
       Maximum Pressure Error:  0.00E+00 on Mesh   1 at (   0   0   0)
       ---------------------------------------------------------------
       Max CFL number:  0.00E+00 at (   0,   0,   0)
       Max divergence:  0.28E-16 at (   3,   2,   1)
       Min divergence: -0.21E-16 at (   2,   2,   1)
       Max VN number:   0.00E+00 at (   0,   0,   0)
 
       Time Step     100   November  1, 2020  16:47:22
       Step Size:    0.100E+01 s, Total Time:     100.00 s
       Pressure Iterations:      1
       Maximum Velocity Error:  0.00E+00 on Mesh   1 at (   0   0   0)
       Maximum Pressure Error:  0.00E+00 on Mesh   1 at (   0   0   0)
       ---------------------------------------------------------------
       Max CFL number:  0.00E+00 at (   0,   0,   0)
       Max divergence:  0.28E-16 at (   3,   2,   1)
       Min divergence: -0.21E-16 at (   2,   2,   1)
       Max VN number:   0.00E+00 at (   0,   0,   0)
 
       Time Step     200   November  1, 2020  16:47:22
       Step Size:    0.100E+01 s, Total Time:     200.00 s
       Pressure Iterations:      1
       Maximum Velocity Error:  0.00E+00 on Mesh   1 at (   0   0   0)
       Maximum Pressure Error:  0.00E+00 on Mesh   1 at (   0   0   0)
       ---------------------------------------------------------------
       Max CFL number:  0.00E+00 at (   0,   0,   0)
       Max divergence:  0.28E-16 at (   3,   2,   1)
       Min divergence: -0.21E-16 at (   2,   2,   1)
       Max VN number:   0.00E+00 at (   0,   0,   0)
 
       Time Step     300   November  1, 2020  16:47:22
       Step Size:    0.100E+01 s, Total Time:     300.00 s
       Pressure Iterations:      1
       Maximum Velocity Error:  0.00E+00 on Mesh   1 at (   0   0   0)
       Maximum Pressure Error:  0.00E+00 on Mesh   1 at (   0   0   0)
       ---------------------------------------------------------------
       Max CFL number:  0.00E+00 at (   0,   0,   0)
       Max divergence:  0.28E-16 at (   3,   2,   1)
       Min divergence: -0.21E-16 at (   2,   2,   1)
       Max VN number:   0.00E+00 at (   0,   0,   0)
 
       Time Step     400   November  1, 2020  16:47:22
       Step Size:    0.100E+01 s, Total Time:     400.00 s
       Pressure Iterations:      1
       Maximum Velocity Error:  0.00E+00 on Mesh   1 at (   0   0   0)
       Maximum Pressure Error:  0.00E+00 on Mesh   1 at (   0   0   0)
       ---------------------------------------------------------------
       Max CFL number:  0.00E+00 at (   0,   0,   0)
       Max divergence:  0.28E-16 at (   3,   2,   1)
       Min divergence: -0.21E-16 at (   2,   2,   1)
       Max VN number:   0.00E+00 at (   0,   0,   0)
 
       Time Step     500   November  1, 2020  16:47:22
       Step Size:    0.100E+01 s, Total Time:     500.00 s
       Pressure Iterations:      1
       Maximum Velocity Error:  0.00E+00 on Mesh   1 at (   0   0   0)
       Maximum Pressure Error:  0.00E+00 on Mesh   1 at (   0   0   0)
       ---------------------------------------------------------------
       Max CFL number:  0.00E+00 at (   0,   0,   0)
       Max divergence:  0.28E-16 at (   3,   2,   1)
       Min divergence: -0.21E-16 at (   2,   2,   1)
       Max VN number:   0.00E+00 at (   0,   0,   0)
 
       Time Step     600   November  1, 2020  16:47:22
       Step Size:    0.100E+01 s, Total Time:     600.00 s
       Pressure Iterations:      1
       Maximum Velocity Error:  0.00E+00 on Mesh   1 at (   0   0   0)
       Maximum Pressure Error:  0.00E+00 on Mesh   1 at (   0   0   0)
       ---------------------------------------------------------------
       Max CFL number:  0.00E+00 at (   0,   0,   0)
       Max divergence:  0.28E-16 at (   3,   2,   1)
       Min divergence: -0.21E-16 at (   2,   2,   1)
       Max VN number:   0.00E+00 at (   0,   0,   0)
 
       Time Step     700   November  1, 2020  16:47:23
       Step Size:    0.100E+01 s, Total Time:     700.00 s
       Pressure Iterations:      1
       Maximum Velocity Error:  0.00E+00 on Mesh   1 at (   0   0   0)
       Maximum Pressure Error:  0.00E+00 on Mesh   1 at (   0   0   0)
       ---------------------------------------------------------------
       Max CFL number:  0.00E+00 at (   0,   0,   0)
       Max divergence:  0.28E-16 at (   3,   2,   1)
       Min divergence: -0.21E-16 at (   2,   2,   1)
       Max VN number:   0.00E+00 at (   0,   0,   0)
 
       Time Step     800   November  1, 2020  16:47:23
       Step Size:    0.100E+01 s, Total Time:     800.00 s
       Pressure Iterations:      1
       Maximum Velocity Error:  0.00E+00 on Mesh   1 at (   0   0   0)
       Maximum Pressure Error:  0.00E+00 on Mesh   1 at (   0   0   0)
       ---------------------------------------------------------------
       Max CFL number:  0.00E+00 at (   0,   0,   0)
       Max divergence:  0.28E-16 at (   3,   2,   1)
       Min divergence: -0.21E-16 at (   2,   2,   1)
       Max VN number:   0.00E+00 at (   0,   0,   0)
 
       Time Step     900   November  1, 2020  16:47:23
       Step Size:    0.100E+01 s, Total Time:     900.00 s
       Pressure Iterations:      1
       Maximum Velocity Error:  0.00E+00 on Mesh   1 at (   0   0   0)
       Maximum Pressure Error:  0.00E+00 on Mesh   1 at (   0   0   0)
       ---------------------------------------------------------------
       Max CFL number:  0.00E+00 at (   0,   0,   0)
       Max divergence:  0.28E-16 at (   3,   2,   1)
       Min divergence: -0.21E-16 at (   2,   2,   1)
       Max VN number:   0.00E+00 at (   0,   0,   0)
 
       Time Step    1000   November  1, 2020  16:47:23
       Step Size:    0.100E+01 s, Total Time:    1000.00 s
       Pressure Iterations:      1
       Maximum Velocity Error:  0.00E+00 on Mesh   1 at (   0   0   0)
       Maximum Pressure Error:  0.00E+00 on Mesh   1 at (   0   0   0)
       ---------------------------------------------------------------
       Max CFL number:  0.00E+00 at (   0,   0,   0)
       Max divergence:  0.28E-16 at (   3,   2,   1)
       Min divergence: -0.21E-16 at (   2,   2,   1)
       Max VN number:   0.00E+00 at (   0,   0,   0)
 
       Time Step    1100   November  1, 2020  16:47:23
       Step Size:    0.100E+01 s, Total Time:    1100.00 s
       Pressure Iterations:      1
       Maximum Velocity Error:  0.00E+00 on Mesh   1 at (   0   0   0)
       Maximum Pressure Error:  0.00E+00 on Mesh   1 at (   0   0   0)
       ---------------------------------------------------------------
       Max CFL number:  0.00E+00 at (   0,   0,   0)
       Max divergence:  0.28E-16 at (   3,   2,   1)
       Min divergence: -0.21E-16 at (   2,   2,   1)
       Max VN number:   0.00E+00 at (   0,   0,   0)
 
       Time Step    1200   November  1, 2020  16:47:23
       Step Size:    0.100E+01 s, Total Time:    1200.00 s
       Pressure Iterations:      1
       Maximum Velocity Error:  0.00E+00 on Mesh   1 at (   0   0   0)
       Maximum Pressure Error:  0.00E+00 on Mesh   1 at (   0   0   0)
       ---------------------------------------------------------------
       Max CFL number:  0.00E+00 at (   0,   0,   0)
       Max divergence:  0.28E-16 at (   3,   2,   1)
       Min divergence: -0.21E-16 at (   2,   2,   1)
       Max VN number:   0.00E+00 at (   0,   0,   0)
 
       Time Step    1300   November  1, 2020  16:47:23
       Step Size:    0.100E+01 s, Total Time:    1300.00 s
       Pressure Iterations:      1
       Maximum Velocity Error:  0.00E+00 on Mesh   1 at (   0   0   0)
       Maximum Pressure Error:  0.00E+00 on Mesh   1 at (   0   0   0)
       ---------------------------------------------------------------
       Max CFL number:  0.00E+00 at (   0,   0,   0)
       Max divergence:  0.28E-16 at (   3,   2,   1)
       Min divergence: -0.21E-16 at (   2,   2,   1)
       Max VN number:   0.00E+00 at (   0,   0,   0)
 
       Time Step    1400   November  1, 2020  16:47:23
       Step Size:    0.100E+01 s, Total Time:    1400.00 s
       Pressure Iterations:      1
       Maximum Velocity Error:  0.00E+00 on Mesh   1 at (   0   0   0)
       Maximum Pressure Error:  0.00E+00 on Mesh   1 at (   0   0   0)
       ---------------------------------------------------------------
       Max CFL number:  0.00E+00 at (   0,   0,   0)
       Max divergence:  0.28E-16 at (   3,   2,   1)
       Min divergence: -0.21E-16 at (   2,   2,   1)
       Max VN number:   0.00E+00 at (   0,   0,   0)
 
       Time Step    1500   November  1, 2020  16:47:23
       Step Size:    0.100E+01 s, Total Time:    1500.00 s
       Pressure Iterations:      1
       Maximum Velocity Error:  0.00E+00 on Mesh   1 at (   0   0   0)
       Maximum Pressure Error:  0.00E+00 on Mesh   1 at (   0   0   0)
       ---------------------------------------------------------------
       Max CFL number:  0.00E+00 at (   0,   0,   0)
       Max divergence:  0.28E-16 at (   3,   2,   1)
       Min divergence: -0.21E-16 at (   2,   2,   1)
       Max VN number:   0.00E+00 at (   0,   0,   0)
 
       Time Step    1600   November  1, 2020  16:47:23
       Step Size:    0.100E+01 s, Total Time:    1600.00 s
       Pressure Iterations:      1
       Maximum Velocity Error:  0.00E+00 on Mesh   1 at (   0   0   0)
       Maximum Pressure Error:  0.00E+00 on Mesh   1 at (   0   0   0)
       ---------------------------------------------------------------
       Max CFL number:  0.00E+00 at (   0,   0,   0)
       Max divergence:  0.28E-16 at (   3,   2,   1)
       Min divergence: -0.21E-16 at (   2,   2,   1)
       Max VN number:   0.00E+00 at (   0,   0,   0)
 
       Time Step    1700   November  1, 2020  16:47:23
       Step Size:    0.100E+01 s, Total Time:    1700.00 s
       Pressure Iterations:      1
       Maximum Velocity Error:  0.00E+00 on Mesh   1 at (   0   0   0)
       Maximum Pressure Error:  0.00E+00 on Mesh   1 at (   0   0   0)
       ---------------------------------------------------------------
       Max CFL number:  0.00E+00 at (   0,   0,   0)
       Max divergence:  0.28E-16 at (   3,   2,   1)
       Min divergence: -0.21E-16 at (   2,   2,   1)
       Max VN number:   0.00E+00 at (   0,   0,   0)
 
       Time Step    1800   November  1, 2020  16:47:23
       Step Size:    0.100E+01 s, Total Time:    1800.00 s
       Pressure Iterations:      1
       Maximum Velocity Error:  0.00E+00 on Mesh   1 at (   0   0   0)
       Maximum Pressure Error:  0.00E+00 on Mesh   1 at (   0   0   0)
       ---------------------------------------------------------------
       Max CFL number:  0.00E+00 at (   0,   0,   0)
       Max divergence:  0.28E-16 at (   3,   2,   1)
       Min divergence: -0.21E-16 at (   2,   2,   1)
       Max VN number:   0.00E+00 at (   0,   0,   0)
 
       Time Step    1900   November  1, 2020  16:47:23
       Step Size:    0.100E+01 s, Total Time:    1900.00 s
       Pressure Iterations:      1
       Maximum Velocity Error:  0.00E+00 on Mesh   1 at (   0   0   0)
       Maximum Pressure Error:  0.00E+00 on Mesh   1 at (   0   0   0)
       ---------------------------------------------------------------
       Max CFL number:  0.00E+00 at (   0,   0,   0)
       Max divergence:  0.28E-16 at (   3,   2,   1)
       Min divergence: -0.21E-16 at (   2,   2,   1)
       Max VN number:   0.00E+00 at (   0,   0,   0)
 
       Time Step    2000   November  1, 2020  16:47:23
       Step Size:    0.100E+01 s, Total Time:    2000.00 s
       Pressure Iterations:      1
       Maximum Velocity Error:  0.00E+00 on Mesh   1 at (   0   0   0)
       Maximum Pressure Error:  0.00E+00 on Mesh   1 at (   0   0   0)
       ---------------------------------------------------------------
       Max CFL number:  0.00E+00 at (   0,   0,   0)
       Max divergence:  0.28E-16 at (   3,   2,   1)
       Min divergence: -0.21E-16 at (   2,   2,   1)
       Max VN number:   0.00E+00 at (   0,   0,   0)
 
       Time Step    2100   November  1, 2020  16:47:23
       Step Size:    0.100E+01 s, Total Time:    2100.00 s
       Pressure Iterations:      1
       Maximum Velocity Error:  0.00E+00 on Mesh   1 at (   0   0   0)
       Maximum Pressure Error:  0.00E+00 on Mesh   1 at (   0   0   0)
       ---------------------------------------------------------------
       Max CFL number:  0.00E+00 at (   0,   0,   0)
       Max divergence:  0.28E-16 at (   3,   2,   1)
       Min divergence: -0.21E-16 at (   2,   2,   1)
       Max VN number:   0.00E+00 at (   0,   0,   0)
 
       Time Step    2200   November  1, 2020  16:47:23
       Step Size:    0.100E+01 s, Total Time:    2200.00 s
       Pressure Iterations:      1
       Maximum Velocity Error:  0.00E+00 on Mesh   1 at (   0   0   0)
       Maximum Pressure Error:  0.00E+00 on Mesh   1 at (   0   0   0)
       ---------------------------------------------------------------
       Max CFL number:  0.00E+00 at (   0,   0,   0)
       Max divergence:  0.28E-16 at (   3,   2,   1)
       Min divergence: -0.21E-16 at (   2,   2,   1)
       Max VN number:   0.00E+00 at (   0,   0,   0)
 
       Time Step    2300   November  1, 2020  16:47:23
       Step Size:    0.100E+01 s, Total Time:    2300.00 s
       Pressure Iterations:      1
       Maximum Velocity Error:  0.00E+00 on Mesh   1 at (   0   0   0)
       Maximum Pressure Error:  0.00E+00 on Mesh   1 at (   0   0   0)
       ---------------------------------------------------------------
       Max CFL number:  0.00E+00 at (   0,   0,   0)
       Max divergence:  0.28E-16 at (   3,   2,   1)
       Min divergence: -0.21E-16 at (   2,   2,   1)
       Max VN number:   0.00E+00 at (   0,   0,   0)
 
       Time Step    2400   November  1, 2020  16:47:23
       Step Size:    0.100E+01 s, Total Time:    2400.00 s
       Pressure Iterations:      1
       Maximum Velocity Error:  0.00E+00 on Mesh   1 at (   0   0   0)
       Maximum Pressure Error:  0.00E+00 on Mesh   1 at (   0   0   0)
       ---------------------------------------------------------------
       Max CFL number:  0.00E+00 at (   0,   0,   0)
       Max divergence:  0.28E-16 at (   3,   2,   1)
       Min divergence: -0.21E-16 at (   2,   2,   1)
       Max VN number:   0.00E+00 at (   0,   0,   0)
 
       Time Step    2500   November  1, 2020  16:47:23
       Step Size:    0.100E+01 s, Total Time:    2500.00 s
       Pressure Iterations:      1
       Maximum Velocity Error:  0.00E+00 on Mesh   1 at (   0   0   0)
       Maximum Pressure Error:  0.00E+00 on Mesh   1 at (   0   0   0)
       ---------------------------------------------------------------
       Max CFL number:  0.00E+00 at (   0,   0,   0)
       Max divergence:  0.28E-16 at (   3,   2,   1)
       Min divergence: -0.21E-16 at (   2,   2,   1)
       Max VN number:   0.00E+00 at (   0,   0,   0)
 
       Time Step    2600   November  1, 2020  16:47:23
       Step Size:    0.100E+01 s, Total Time:    2600.00 s
       Pressure Iterations:      1
       Maximum Velocity Error:  0.00E+00 on Mesh   1 at (   0   0   0)
       Maximum Pressure Error:  0.00E+00 on Mesh   1 at (   0   0   0)
       ---------------------------------------------------------------
       Max CFL number:  0.00E+00 at (   0,   0,   0)
       Max divergence:  0.28E-16 at (   3,   2,   1)
       Min divergence: -0.21E-16 at (   2,   2,   1)
       Max VN number:   0.00E+00 at (   0,   0,   0)
 
       Time Step    2700   November  1, 2020  16:47:23
       Step Size:    0.100E+01 s, Total Time:    2700.00 s
       Pressure Iterations:      1
       Maximum Velocity Error:  0.00E+00 on Mesh   1 at (   0   0   0)
       Maximum Pressure Error:  0.00E+00 on Mesh   1 at (   0   0   0)
       ---------------------------------------------------------------
       Max CFL number:  0.00E+00 at (   0,   0,   0)
       Max divergence:  0.28E-16 at (   3,   2,   1)
       Min divergence: -0.21E-16 at (   2,   2,   1)
       Max VN number:   0.00E+00 at (   0,   0,   0)
 
       Time Step    2800   November  1, 2020  16:47:23
       Step Size:    0.100E+01 s, Total Time:    2800.00 s
       Pressure Iterations:      1
       Maximum Velocity Error:  0.00E+00 on Mesh   1 at (   0   0   0)
       Maximum Pressure Error:  0.00E+00 on Mesh   1 at (   0   0   0)
       ---------------------------------------------------------------
       Max CFL number:  0.00E+00 at (   0,   0,   0)
       Max divergence:  0.28E-16 at (   3,   2,   1)
       Min divergence: -0.21E-16 at (   2,   2,   1)
       Max VN number:   0.00E+00 at (   0,   0,   0)
 
       Time Step    2900   November  1, 2020  16:47:23
       Step Size:    0.100E+01 s, Total Time:    2900.00 s
       Pressure Iterations:      1
       Maximum Velocity Error:  0.00E+00 on Mesh   1 at (   0   0   0)
       Maximum Pressure Error:  0.00E+00 on Mesh   1 at (   0   0   0)
       ---------------------------------------------------------------
       Max CFL number:  0.00E+00 at (   0,   0,   0)
       Max divergence:  0.28E-16 at (   3,   2,   1)
       Min divergence: -0.21E-16 at (   2,   2,   1)
       Max VN number:   0.00E+00 at (   0,   0,   0)
 
       Time Step    3000   November  1, 2020  16:47:23
       Step Size:    0.100E+01 s, Total Time:    3000.00 s
       Pressure Iterations:      1
       Maximum Velocity Error:  0.00E+00 on Mesh   1 at (   0   0   0)
       Maximum Pressure Error:  0.00E+00 on Mesh   1 at (   0   0   0)
       ---------------------------------------------------------------
       Max CFL number:  0.00E+00 at (   0,   0,   0)
       Max divergence:  0.28E-16 at (   3,   2,   1)
       Min divergence: -0.21E-16 at (   2,   2,   1)
       Max VN number:   0.00E+00 at (   0,   0,   0)
 
       Time Step    3100   November  1, 2020  16:47:23
       Step Size:    0.100E+01 s, Total Time:    3100.00 s
       Pressure Iterations:      1
       Maximum Velocity Error:  0.00E+00 on Mesh   1 at (   0   0   0)
       Maximum Pressure Error:  0.00E+00 on Mesh   1 at (   0   0   0)
       ---------------------------------------------------------------
       Max CFL number:  0.00E+00 at (   0,   0,   0)
       Max divergence:  0.28E-16 at (   3,   2,   1)
       Min divergence: -0.21E-16 at (   2,   2,   1)
       Max VN number:   0.00E+00 at (   0,   0,   0)
 
       Time Step    3200   November  1, 2020  16:47:23
       Step Size:    0.100E+01 s, Total Time:    3200.00 s
       Pressure Iterations:      1
       Maximum Velocity Error:  0.00E+00 on Mesh   1 at (   0   0   0)
       Maximum Pressure Error:  0.00E+00 on Mesh   1 at (   0   0   0)
       ---------------------------------------------------------------
       Max CFL number:  0.00E+00 at (   0,   0,   0)
       Max divergence:  0.28E-16 at (   3,   2,   1)
       Min divergence: -0.21E-16 at (   2,   2,   1)
       Max VN number:   0.00E+00 at (   0,   0,   0)
 
       Time Step    3300   November  1, 2020  16:47:23
       Step Size:    0.100E+01 s, Total Time:    3300.00 s
       Pressure Iterations:      1
       Maximum Velocity Error:  0.00E+00 on Mesh   1 at (   0   0   0)
       Maximum Pressure Error:  0.00E+00 on Mesh   1 at (   0   0   0)
       ---------------------------------------------------------------
       Max CFL number:  0.00E+00 at (   0,   0,   0)
       Max divergence:  0.28E-16 at (   3,   2,   1)
       Min divergence: -0.21E-16 at (   2,   2,   1)
       Max VN number:   0.00E+00 at (   0,   0,   0)
 
       Time Step    3400   November  1, 2020  16:47:23
       Step Size:    0.100E+01 s, Total Time:    3400.00 s
       Pressure Iterations:      1
       Maximum Velocity Error:  0.00E+00 on Mesh   1 at (   0   0   0)
       Maximum Pressure Error:  0.00E+00 on Mesh   1 at (   0   0   0)
       ---------------------------------------------------------------
       Max CFL number:  0.00E+00 at (   0,   0,   0)
       Max divergence:  0.28E-16 at (   3,   2,   1)
       Min divergence: -0.21E-16 at (   2,   2,   1)
       Max VN number:   0.00E+00 at (   0,   0,   0)
 
       Time Step    3500   November  1, 2020  16:47:23
       Step Size:    0.100E+01 s, Total Time:    3500.00 s
       Pressure Iterations:      1
       Maximum Velocity Error:  0.00E+00 on Mesh   1 at (   0   0   0)
       Maximum Pressure Error:  0.00E+00 on Mesh   1 at (   0   0   0)
       ---------------------------------------------------------------
       Max CFL number:  0.00E+00 at (   0,   0,   0)
       Max divergence:  0.28E-16 at (   3,   2,   1)
       Min divergence: -0.21E-16 at (   2,   2,   1)
       Max VN number:   0.00E+00 at (   0,   0,   0)
 
       Time Step    3600   November  1, 2020  16:47:23
       Step Size:    0.100E+01 s, Total Time:    3600.00 s
       Pressure Iterations:      1
       Maximum Velocity Error:  0.00E+00 on Mesh   1 at (   0   0   0)
       Maximum Pressure Error:  0.00E+00 on Mesh   1 at (   0   0   0)
       ---------------------------------------------------------------
       Max CFL number:  0.00E+00 at (   0,   0,   0)
       Max divergence:  0.28E-16 at (   3,   2,   1)
       Min divergence: -0.21E-16 at (   2,   2,   1)
       Max VN number:   0.00E+00 at (   0,   0,   0)
 
       Time Step    3700   November  1, 2020  16:47:23
       Step Size:    0.100E+01 s, Total Time:    3700.00 s
       Pressure Iterations:      1
       Maximum Velocity Error:  0.00E+00 on Mesh   1 at (   0   0   0)
       Maximum Pressure Error:  0.00E+00 on Mesh   1 at (   0   0   0)
       ---------------------------------------------------------------
       Max CFL number:  0.00E+00 at (   0,   0,   0)
       Max divergence:  0.28E-16 at (   3,   2,   1)
       Min divergence: -0.21E-16 at (   2,   2,   1)
       Max VN number:   0.00E+00 at (   0,   0,   0)
 
       Time Step    3800   November  1, 2020  16:47:23
       Step Size:    0.100E+01 s, Total Time:    3800.00 s
       Pressure Iterations:      1
       Maximum Velocity Error:  0.00E+00 on Mesh   1 at (   0   0   0)
       Maximum Pressure Error:  0.00E+00 on Mesh   1 at (   0   0   0)
       ---------------------------------------------------------------
       Max CFL number:  0.00E+00 at (   0,   0,   0)
       Max divergence:  0.28E-16 at (   3,   2,   1)
       Min divergence: -0.21E-16 at (   2,   2,   1)
       Max VN number:   0.00E+00 at (   0,   0,   0)
 
       Time Step    3900   November  1, 2020  16:47:23
       Step Size:    0.100E+01 s, Total Time:    3900.00 s
       Pressure Iterations:      1
       Maximum Velocity Error:  0.00E+00 on Mesh   1 at (   0   0   0)
       Maximum Pressure Error:  0.00E+00 on Mesh   1 at (   0   0   0)
       ---------------------------------------------------------------
       Max CFL number:  0.00E+00 at (   0,   0,   0)
       Max divergence:  0.28E-16 at (   3,   2,   1)
       Min divergence: -0.21E-16 at (   2,   2,   1)
       Max VN number:   0.00E+00 at (   0,   0,   0)
 
       Time Step    4000   November  1, 2020  16:47:23
       Step Size:    0.100E+01 s, Total Time:    4000.00 s
       Pressure Iterations:      1
       Maximum Velocity Error:  0.00E+00 on Mesh   1 at (   0   0   0)
       Maximum Pressure Error:  0.00E+00 on Mesh   1 at (   0   0   0)
       ---------------------------------------------------------------
       Max CFL number:  0.00E+00 at (   0,   0,   0)
       Max divergence:  0.28E-16 at (   3,   2,   1)
       Min divergence: -0.21E-16 at (   2,   2,   1)
       Max VN number:   0.00E+00 at (   0,   0,   0)
 
       Time Step    4100   November  1, 2020  16:47:23
       Step Size:    0.100E+01 s, Total Time:    4100.00 s
       Pressure Iterations:      1
       Maximum Velocity Error:  0.00E+00 on Mesh   1 at (   0   0   0)
       Maximum Pressure Error:  0.00E+00 on Mesh   1 at (   0   0   0)
       ---------------------------------------------------------------
       Max CFL number:  0.00E+00 at (   0,   0,   0)
       Max divergence:  0.28E-16 at (   3,   2,   1)
       Min divergence: -0.21E-16 at (   2,   2,   1)
       Max VN number:   0.00E+00 at (   0,   0,   0)
 
       Time Step    4200   November  1, 2020  16:47:23
       Step Size:    0.100E+01 s, Total Time:    4200.00 s
       Pressure Iterations:      1
       Maximum Velocity Error:  0.00E+00 on Mesh   1 at (   0   0   0)
       Maximum Pressure Error:  0.00E+00 on Mesh   1 at (   0   0   0)
       ---------------------------------------------------------------
       Max CFL number:  0.00E+00 at (   0,   0,   0)
       Max divergence:  0.28E-16 at (   3,   2,   1)
       Min divergence: -0.21E-16 at (   2,   2,   1)
       Max VN number:   0.00E+00 at (   0,   0,   0)
 
       Time Step    4300   November  1, 2020  16:47:23
       Step Size:    0.100E+01 s, Total Time:    4300.00 s
       Pressure Iterations:      1
       Maximum Velocity Error:  0.00E+00 on Mesh   1 at (   0   0   0)
       Maximum Pressure Error:  0.00E+00 on Mesh   1 at (   0   0   0)
       ---------------------------------------------------------------
       Max CFL number:  0.00E+00 at (   0,   0,   0)
       Max divergence:  0.28E-16 at (   3,   2,   1)
       Min divergence: -0.21E-16 at (   2,   2,   1)
       Max VN number:   0.00E+00 at (   0,   0,   0)
 
       Time Step    4400   November  1, 2020  16:47:23
       Step Size:    0.100E+01 s, Total Time:    4400.00 s
       Pressure Iterations:      1
       Maximum Velocity Error:  0.00E+00 on Mesh   1 at (   0   0   0)
       Maximum Pressure Error:  0.00E+00 on Mesh   1 at (   0   0   0)
       ---------------------------------------------------------------
       Max CFL number:  0.00E+00 at (   0,   0,   0)
       Max divergence:  0.28E-16 at (   3,   2,   1)
       Min divergence: -0.21E-16 at (   2,   2,   1)
       Max VN number:   0.00E+00 at (   0,   0,   0)
 
       Time Step    4500   November  1, 2020  16:47:23
       Step Size:    0.100E+01 s, Total Time:    4500.00 s
       Pressure Iterations:      1
       Maximum Velocity Error:  0.00E+00 on Mesh   1 at (   0   0   0)
       Maximum Pressure Error:  0.00E+00 on Mesh   1 at (   0   0   0)
       ---------------------------------------------------------------
       Max CFL number:  0.00E+00 at (   0,   0,   0)
       Max divergence:  0.28E-16 at (   3,   2,   1)
       Min divergence: -0.21E-16 at (   2,   2,   1)
       Max VN number:   0.00E+00 at (   0,   0,   0)
 
       Time Step    4600   November  1, 2020  16:47:23
       Step Size:    0.100E+01 s, Total Time:    4600.00 s
       Pressure Iterations:      1
       Maximum Velocity Error:  0.00E+00 on Mesh   1 at (   0   0   0)
       Maximum Pressure Error:  0.00E+00 on Mesh   1 at (   0   0   0)
       ---------------------------------------------------------------
       Max CFL number:  0.00E+00 at (   0,   0,   0)
       Max divergence:  0.28E-16 at (   3,   2,   1)
       Min divergence: -0.21E-16 at (   2,   2,   1)
       Max VN number:   0.00E+00 at (   0,   0,   0)
 
       Time Step    4700   November  1, 2020  16:47:23
       Step Size:    0.100E+01 s, Total Time:    4700.00 s
       Pressure Iterations:      1
       Maximum Velocity Error:  0.00E+00 on Mesh   1 at (   0   0   0)
       Maximum Pressure Error:  0.00E+00 on Mesh   1 at (   0   0   0)
       ---------------------------------------------------------------
       Max CFL number:  0.00E+00 at (   0,   0,   0)
       Max divergence:  0.28E-16 at (   3,   2,   1)
       Min divergence: -0.21E-16 at (   2,   2,   1)
       Max VN number:   0.00E+00 at (   0,   0,   0)
 
       Time Step    4800   November  1, 2020  16:47:23
       Step Size:    0.100E+01 s, Total Time:    4800.00 s
       Pressure Iterations:      1
       Maximum Velocity Error:  0.00E+00 on Mesh   1 at (   0   0   0)
       Maximum Pressure Error:  0.00E+00 on Mesh   1 at (   0   0   0)
       ---------------------------------------------------------------
       Max CFL number:  0.00E+00 at (   0,   0,   0)
       Max divergence:  0.28E-16 at (   3,   2,   1)
       Min divergence: -0.21E-16 at (   2,   2,   1)
       Max VN number:   0.00E+00 at (   0,   0,   0)
 
       Time Step    4900   November  1, 2020  16:47:23
       Step Size:    0.100E+01 s, Total Time:    4900.00 s
       Pressure Iterations:      1
       Maximum Velocity Error:  0.00E+00 on Mesh   1 at (   0   0   0)
       Maximum Pressure Error:  0.00E+00 on Mesh   1 at (   0   0   0)
       ---------------------------------------------------------------
       Max CFL number:  0.00E+00 at (   0,   0,   0)
       Max divergence:  0.28E-16 at (   3,   2,   1)
       Min divergence: -0.21E-16 at (   2,   2,   1)
       Max VN number:   0.00E+00 at (   0,   0,   0)
 
       Time Step    5000   November  1, 2020  16:47:23
       Step Size:    0.100E+01 s, Total Time:    5000.00 s
       Pressure Iterations:      1
       Maximum Velocity Error:  0.00E+00 on Mesh   1 at (   0   0   0)
       Maximum Pressure Error:  0.00E+00 on Mesh   1 at (   0   0   0)
       ---------------------------------------------------------------
       Max CFL number:  0.00E+00 at (   0,   0,   0)
       Max divergence:  0.28E-16 at (   3,   2,   1)
       Min divergence: -0.21E-16 at (   2,   2,   1)
       Max VN number:   0.00E+00 at (   0,   0,   0)
 
       Time Step    5100   November  1, 2020  16:47:23
       Step Size:    0.100E+01 s, Total Time:    5100.00 s
       Pressure Iterations:      1
       Maximum Velocity Error:  0.00E+00 on Mesh   1 at (   0   0   0)
       Maximum Pressure Error:  0.00E+00 on Mesh   1 at (   0   0   0)
       ---------------------------------------------------------------
       Max CFL number:  0.00E+00 at (   0,   0,   0)
       Max divergence:  0.28E-16 at (   3,   2,   1)
       Min divergence: -0.21E-16 at (   2,   2,   1)
       Max VN number:   0.00E+00 at (   0,   0,   0)
 
       Time Step    5200   November  1, 2020  16:47:23
       Step Size:    0.100E+01 s, Total Time:    5200.00 s
       Pressure Iterations:      1
       Maximum Velocity Error:  0.00E+00 on Mesh   1 at (   0   0   0)
       Maximum Pressure Error:  0.00E+00 on Mesh   1 at (   0   0   0)
       ---------------------------------------------------------------
       Max CFL number:  0.00E+00 at (   0,   0,   0)
       Max divergence:  0.28E-16 at (   3,   2,   1)
       Min divergence: -0.21E-16 at (   2,   2,   1)
       Max VN number:   0.00E+00 at (   0,   0,   0)
 
       Time Step    5300   November  1, 2020  16:47:23
       Step Size:    0.100E+01 s, Total Time:    5300.00 s
       Pressure Iterations:      1
       Maximum Velocity Error:  0.00E+00 on Mesh   1 at (   0   0   0)
       Maximum Pressure Error:  0.00E+00 on Mesh   1 at (   0   0   0)
       ---------------------------------------------------------------
       Max CFL number:  0.00E+00 at (   0,   0,   0)
       Max divergence:  0.28E-16 at (   3,   2,   1)
       Min divergence: -0.21E-16 at (   2,   2,   1)
       Max VN number:   0.00E+00 at (   0,   0,   0)
 
       Time Step    5400   November  1, 2020  16:47:23
       Step Size:    0.100E+01 s, Total Time:    5400.00 s
       Pressure Iterations:      1
       Maximum Velocity Error:  0.00E+00 on Mesh   1 at (   0   0   0)
       Maximum Pressure Error:  0.00E+00 on Mesh   1 at (   0   0   0)
       ---------------------------------------------------------------
       Max CFL number:  0.00E+00 at (   0,   0,   0)
       Max divergence:  0.28E-16 at (   3,   2,   1)
       Min divergence: -0.21E-16 at (   2,   2,   1)
       Max VN number:   0.00E+00 at (   0,   0,   0)
 
       Time Step    5500   November  1, 2020  16:47:23
       Step Size:    0.100E+01 s, Total Time:    5500.00 s
       Pressure Iterations:      1
       Maximum Velocity Error:  0.00E+00 on Mesh   1 at (   0   0   0)
       Maximum Pressure Error:  0.00E+00 on Mesh   1 at (   0   0   0)
       ---------------------------------------------------------------
       Max CFL number:  0.00E+00 at (   0,   0,   0)
       Max divergence:  0.28E-16 at (   3,   2,   1)
       Min divergence: -0.21E-16 at (   2,   2,   1)
       Max VN number:   0.00E+00 at (   0,   0,   0)
 
       Time Step    5600   November  1, 2020  16:47:23
       Step Size:    0.100E+01 s, Total Time:    5600.00 s
       Pressure Iterations:      1
       Maximum Velocity Error:  0.00E+00 on Mesh   1 at (   0   0   0)
       Maximum Pressure Error:  0.00E+00 on Mesh   1 at (   0   0   0)
       ---------------------------------------------------------------
       Max CFL number:  0.00E+00 at (   0,   0,   0)
       Max divergence:  0.28E-16 at (   3,   2,   1)
       Min divergence: -0.21E-16 at (   2,   2,   1)
       Max VN number:   0.00E+00 at (   0,   0,   0)
 
       Time Step    5700   November  1, 2020  16:47:23
       Step Size:    0.100E+01 s, Total Time:    5700.00 s
       Pressure Iterations:      1
       Maximum Velocity Error:  0.00E+00 on Mesh   1 at (   0   0   0)
       Maximum Pressure Error:  0.00E+00 on Mesh   1 at (   0   0   0)
       ---------------------------------------------------------------
       Max CFL number:  0.00E+00 at (   0,   0,   0)
       Max divergence:  0.28E-16 at (   3,   2,   1)
       Min divergence: -0.21E-16 at (   2,   2,   1)
       Max VN number:   0.00E+00 at (   0,   0,   0)
 
       Time Step    5800   November  1, 2020  16:47:23
       Step Size:    0.100E+01 s, Total Time:    5800.00 s
       Pressure Iterations:      1
       Maximum Velocity Error:  0.00E+00 on Mesh   1 at (   0   0   0)
       Maximum Pressure Error:  0.00E+00 on Mesh   1 at (   0   0   0)
       ---------------------------------------------------------------
       Max CFL number:  0.00E+00 at (   0,   0,   0)
       Max divergence:  0.28E-16 at (   3,   2,   1)
       Min divergence: -0.21E-16 at (   2,   2,   1)
       Max VN number:   0.00E+00 at (   0,   0,   0)
 
       Time Step    5900   November  1, 2020  16:47:23
       Step Size:    0.100E+01 s, Total Time:    5900.00 s
       Pressure Iterations:      1
       Maximum Velocity Error:  0.00E+00 on Mesh   1 at (   0   0   0)
       Maximum Pressure Error:  0.00E+00 on Mesh   1 at (   0   0   0)
       ---------------------------------------------------------------
       Max CFL number:  0.00E+00 at (   0,   0,   0)
       Max divergence:  0.28E-16 at (   3,   2,   1)
       Min divergence: -0.21E-16 at (   2,   2,   1)
       Max VN number:   0.00E+00 at (   0,   0,   0)
 
       Time Step    6000   November  1, 2020  16:47:23
       Step Size:    0.100E+01 s, Total Time:    6000.00 s
       Pressure Iterations:      1
       Maximum Velocity Error:  0.00E+00 on Mesh   1 at (   0   0   0)
       Maximum Pressure Error:  0.00E+00 on Mesh   1 at (   0   0   0)
       ---------------------------------------------------------------
       Max CFL number:  0.00E+00 at (   0,   0,   0)
       Max divergence:  0.28E-16 at (   3,   2,   1)
       Min divergence: -0.21E-16 at (   2,   2,   1)
       Max VN number:   0.00E+00 at (   0,   0,   0)
 
       Time Step    6100   November  1, 2020  16:47:23
       Step Size:    0.100E+01 s, Total Time:    6100.00 s
       Pressure Iterations:      1
       Maximum Velocity Error:  0.00E+00 on Mesh   1 at (   0   0   0)
       Maximum Pressure Error:  0.00E+00 on Mesh   1 at (   0   0   0)
       ---------------------------------------------------------------
       Max CFL number:  0.00E+00 at (   0,   0,   0)
       Max divergence:  0.28E-16 at (   3,   2,   1)
       Min divergence: -0.21E-16 at (   2,   2,   1)
       Max VN number:   0.00E+00 at (   0,   0,   0)
 
       Time Step    6200   November  1, 2020  16:47:23
       Step Size:    0.100E+01 s, Total Time:    6200.00 s
       Pressure Iterations:      1
       Maximum Velocity Error:  0.00E+00 on Mesh   1 at (   0   0   0)
       Maximum Pressure Error:  0.00E+00 on Mesh   1 at (   0   0   0)
       ---------------------------------------------------------------
       Max CFL number:  0.00E+00 at (   0,   0,   0)
       Max divergence:  0.28E-16 at (   3,   2,   1)
       Min divergence: -0.21E-16 at (   2,   2,   1)
       Max VN number:   0.00E+00 at (   0,   0,   0)
 
       Time Step    6300   November  1, 2020  16:47:23
       Step Size:    0.100E+01 s, Total Time:    6300.00 s
       Pressure Iterations:      1
       Maximum Velocity Error:  0.00E+00 on Mesh   1 at (   0   0   0)
       Maximum Pressure Error:  0.00E+00 on Mesh   1 at (   0   0   0)
       ---------------------------------------------------------------
       Max CFL number:  0.00E+00 at (   0,   0,   0)
       Max divergence:  0.28E-16 at (   3,   2,   1)
       Min divergence: -0.21E-16 at (   2,   2,   1)
       Max VN number:   0.00E+00 at (   0,   0,   0)
 
       Time Step    6400   November  1, 2020  16:47:24
       Step Size:    0.100E+01 s, Total Time:    6400.00 s
       Pressure Iterations:      1
       Maximum Velocity Error:  0.00E+00 on Mesh   1 at (   0   0   0)
       Maximum Pressure Error:  0.00E+00 on Mesh   1 at (   0   0   0)
       ---------------------------------------------------------------
       Max CFL number:  0.00E+00 at (   0,   0,   0)
       Max divergence:  0.28E-16 at (   3,   2,   1)
       Min divergence: -0.21E-16 at (   2,   2,   1)
       Max VN number:   0.00E+00 at (   0,   0,   0)
 
       Time Step    6500   November  1, 2020  16:47:24
       Step Size:    0.100E+01 s, Total Time:    6500.00 s
       Pressure Iterations:      1
       Maximum Velocity Error:  0.00E+00 on Mesh   1 at (   0   0   0)
       Maximum Pressure Error:  0.00E+00 on Mesh   1 at (   0   0   0)
       ---------------------------------------------------------------
       Max CFL number:  0.00E+00 at (   0,   0,   0)
       Max divergence:  0.28E-16 at (   3,   2,   1)
       Min divergence: -0.21E-16 at (   2,   2,   1)
       Max VN number:   0.00E+00 at (   0,   0,   0)
 
       Time Step    6600   November  1, 2020  16:47:24
       Step Size:    0.100E+01 s, Total Time:    6600.00 s
       Pressure Iterations:      1
       Maximum Velocity Error:  0.00E+00 on Mesh   1 at (   0   0   0)
       Maximum Pressure Error:  0.00E+00 on Mesh   1 at (   0   0   0)
       ---------------------------------------------------------------
       Max CFL number:  0.00E+00 at (   0,   0,   0)
       Max divergence:  0.28E-16 at (   3,   2,   1)
       Min divergence: -0.21E-16 at (   2,   2,   1)
       Max VN number:   0.00E+00 at (   0,   0,   0)
 
       Time Step    6700   November  1, 2020  16:47:24
       Step Size:    0.100E+01 s, Total Time:    6700.00 s
       Pressure Iterations:      1
       Maximum Velocity Error:  0.00E+00 on Mesh   1 at (   0   0   0)
       Maximum Pressure Error:  0.00E+00 on Mesh   1 at (   0   0   0)
       ---------------------------------------------------------------
       Max CFL number:  0.00E+00 at (   0,   0,   0)
       Max divergence:  0.28E-16 at (   3,   2,   1)
       Min divergence: -0.21E-16 at (   2,   2,   1)
       Max VN number:   0.00E+00 at (   0,   0,   0)
 
       Time Step    6800   November  1, 2020  16:47:24
       Step Size:    0.100E+01 s, Total Time:    6800.00 s
       Pressure Iterations:      1
       Maximum Velocity Error:  0.00E+00 on Mesh   1 at (   0   0   0)
       Maximum Pressure Error:  0.00E+00 on Mesh   1 at (   0   0   0)
       ---------------------------------------------------------------
       Max CFL number:  0.00E+00 at (   0,   0,   0)
       Max divergence:  0.28E-16 at (   3,   2,   1)
       Min divergence: -0.21E-16 at (   2,   2,   1)
       Max VN number:   0.00E+00 at (   0,   0,   0)
 
       Time Step    6900   November  1, 2020  16:47:24
       Step Size:    0.100E+01 s, Total Time:    6900.00 s
       Pressure Iterations:      1
       Maximum Velocity Error:  0.00E+00 on Mesh   1 at (   0   0   0)
       Maximum Pressure Error:  0.00E+00 on Mesh   1 at (   0   0   0)
       ---------------------------------------------------------------
       Max CFL number:  0.00E+00 at (   0,   0,   0)
       Max divergence:  0.28E-16 at (   3,   2,   1)
       Min divergence: -0.21E-16 at (   2,   2,   1)
       Max VN number:   0.00E+00 at (   0,   0,   0)
 
       Time Step    7000   November  1, 2020  16:47:24
       Step Size:    0.100E+01 s, Total Time:    7000.00 s
       Pressure Iterations:      1
       Maximum Velocity Error:  0.00E+00 on Mesh   1 at (   0   0   0)
       Maximum Pressure Error:  0.00E+00 on Mesh   1 at (   0   0   0)
       ---------------------------------------------------------------
       Max CFL number:  0.00E+00 at (   0,   0,   0)
       Max divergence:  0.28E-16 at (   3,   2,   1)
       Min divergence: -0.21E-16 at (   2,   2,   1)
       Max VN number:   0.00E+00 at (   0,   0,   0)
 
       Time Step    7100   November  1, 2020  16:47:24
       Step Size:    0.100E+01 s, Total Time:    7100.00 s
       Pressure Iterations:      1
       Maximum Velocity Error:  0.00E+00 on Mesh   1 at (   0   0   0)
       Maximum Pressure Error:  0.00E+00 on Mesh   1 at (   0   0   0)
       ---------------------------------------------------------------
       Max CFL number:  0.00E+00 at (   0,   0,   0)
       Max divergence:  0.28E-16 at (   3,   2,   1)
       Min divergence: -0.21E-16 at (   2,   2,   1)
       Max VN number:   0.00E+00 at (   0,   0,   0)
 
       Time Step    7200   November  1, 2020  16:47:24
       Step Size:    0.100E+01 s, Total Time:    7200.00 s
       Pressure Iterations:      1
       Maximum Velocity Error:  0.00E+00 on Mesh   1 at (   0   0   0)
       Maximum Pressure Error:  0.00E+00 on Mesh   1 at (   0   0   0)
       ---------------------------------------------------------------
       Max CFL number:  0.00E+00 at (   0,   0,   0)
       Max divergence:  0.28E-16 at (   3,   2,   1)
       Min divergence: -0.21E-16 at (   2,   2,   1)
       Max VN number:   0.00E+00 at (   0,   0,   0)
 
       Time Step    7300   November  1, 2020  16:47:24
       Step Size:    0.100E+01 s, Total Time:    7300.00 s
       Pressure Iterations:      1
       Maximum Velocity Error:  0.00E+00 on Mesh   1 at (   0   0   0)
       Maximum Pressure Error:  0.00E+00 on Mesh   1 at (   0   0   0)
       ---------------------------------------------------------------
       Max CFL number:  0.00E+00 at (   0,   0,   0)
       Max divergence:  0.28E-16 at (   3,   2,   1)
       Min divergence: -0.21E-16 at (   2,   2,   1)
       Max VN number:   0.00E+00 at (   0,   0,   0)
 
       Time Step    7400   November  1, 2020  16:47:24
       Step Size:    0.100E+01 s, Total Time:    7400.00 s
       Pressure Iterations:      1
       Maximum Velocity Error:  0.00E+00 on Mesh   1 at (   0   0   0)
       Maximum Pressure Error:  0.00E+00 on Mesh   1 at (   0   0   0)
       ---------------------------------------------------------------
       Max CFL number:  0.00E+00 at (   0,   0,   0)
       Max divergence:  0.28E-16 at (   3,   2,   1)
       Min divergence: -0.21E-16 at (   2,   2,   1)
       Max VN number:   0.00E+00 at (   0,   0,   0)
 
       Time Step    7500   November  1, 2020  16:47:24
       Step Size:    0.100E+01 s, Total Time:    7500.00 s
       Pressure Iterations:      1
       Maximum Velocity Error:  0.00E+00 on Mesh   1 at (   0   0   0)
       Maximum Pressure Error:  0.00E+00 on Mesh   1 at (   0   0   0)
       ---------------------------------------------------------------
       Max CFL number:  0.00E+00 at (   0,   0,   0)
       Max divergence:  0.28E-16 at (   3,   2,   1)
       Min divergence: -0.21E-16 at (   2,   2,   1)
       Max VN number:   0.00E+00 at (   0,   0,   0)
 
       Time Step    7600   November  1, 2020  16:47:24
       Step Size:    0.100E+01 s, Total Time:    7600.00 s
       Pressure Iterations:      1
       Maximum Velocity Error:  0.00E+00 on Mesh   1 at (   0   0   0)
       Maximum Pressure Error:  0.00E+00 on Mesh   1 at (   0   0   0)
       ---------------------------------------------------------------
       Max CFL number:  0.00E+00 at (   0,   0,   0)
       Max divergence:  0.28E-16 at (   3,   2,   1)
       Min divergence: -0.21E-16 at (   2,   2,   1)
       Max VN number:   0.00E+00 at (   0,   0,   0)
 
       Time Step    7700   November  1, 2020  16:47:24
       Step Size:    0.100E+01 s, Total Time:    7700.00 s
       Pressure Iterations:      1
       Maximum Velocity Error:  0.00E+00 on Mesh   1 at (   0   0   0)
       Maximum Pressure Error:  0.00E+00 on Mesh   1 at (   0   0   0)
       ---------------------------------------------------------------
       Max CFL number:  0.00E+00 at (   0,   0,   0)
       Max divergence:  0.28E-16 at (   3,   2,   1)
       Min divergence: -0.21E-16 at (   2,   2,   1)
       Max VN number:   0.00E+00 at (   0,   0,   0)
 
       Time Step    7800   November  1, 2020  16:47:24
       Step Size:    0.100E+01 s, Total Time:    7800.00 s
       Pressure Iterations:      1
       Maximum Velocity Error:  0.00E+00 on Mesh   1 at (   0   0   0)
       Maximum Pressure Error:  0.00E+00 on Mesh   1 at (   0   0   0)
       ---------------------------------------------------------------
       Max CFL number:  0.00E+00 at (   0,   0,   0)
       Max divergence:  0.28E-16 at (   3,   2,   1)
       Min divergence: -0.21E-16 at (   2,   2,   1)
       Max VN number:   0.00E+00 at (   0,   0,   0)
 
       Time Step    7900   November  1, 2020  16:47:24
       Step Size:    0.100E+01 s, Total Time:    7900.00 s
       Pressure Iterations:      1
       Maximum Velocity Error:  0.00E+00 on Mesh   1 at (   0   0   0)
       Maximum Pressure Error:  0.00E+00 on Mesh   1 at (   0   0   0)
       ---------------------------------------------------------------
       Max CFL number:  0.00E+00 at (   0,   0,   0)
       Max divergence:  0.28E-16 at (   3,   2,   1)
       Min divergence: -0.21E-16 at (   2,   2,   1)
       Max VN number:   0.00E+00 at (   0,   0,   0)
 
       Time Step    8000   November  1, 2020  16:47:24
       Step Size:    0.100E+01 s, Total Time:    8000.00 s
       Pressure Iterations:      1
       Maximum Velocity Error:  0.00E+00 on Mesh   1 at (   0   0   0)
       Maximum Pressure Error:  0.00E+00 on Mesh   1 at (   0   0   0)
       ---------------------------------------------------------------
       Max CFL number:  0.00E+00 at (   0,   0,   0)
       Max divergence:  0.28E-16 at (   3,   2,   1)
       Min divergence: -0.21E-16 at (   2,   2,   1)
       Max VN number:   0.00E+00 at (   0,   0,   0)
 
       Time Step    8100   November  1, 2020  16:47:24
       Step Size:    0.100E+01 s, Total Time:    8100.00 s
       Pressure Iterations:      1
       Maximum Velocity Error:  0.00E+00 on Mesh   1 at (   0   0   0)
       Maximum Pressure Error:  0.00E+00 on Mesh   1 at (   0   0   0)
       ---------------------------------------------------------------
       Max CFL number:  0.00E+00 at (   0,   0,   0)
       Max divergence:  0.28E-16 at (   3,   2,   1)
       Min divergence: -0.21E-16 at (   2,   2,   1)
       Max VN number:   0.00E+00 at (   0,   0,   0)
 
       Time Step    8200   November  1, 2020  16:47:24
       Step Size:    0.100E+01 s, Total Time:    8200.00 s
       Pressure Iterations:      1
       Maximum Velocity Error:  0.00E+00 on Mesh   1 at (   0   0   0)
       Maximum Pressure Error:  0.00E+00 on Mesh   1 at (   0   0   0)
       ---------------------------------------------------------------
       Max CFL number:  0.00E+00 at (   0,   0,   0)
       Max divergence:  0.28E-16 at (   3,   2,   1)
       Min divergence: -0.21E-16 at (   2,   2,   1)
       Max VN number:   0.00E+00 at (   0,   0,   0)
 
       Time Step    8300   November  1, 2020  16:47:24
       Step Size:    0.100E+01 s, Total Time:    8300.00 s
       Pressure Iterations:      1
       Maximum Velocity Error:  0.00E+00 on Mesh   1 at (   0   0   0)
       Maximum Pressure Error:  0.00E+00 on Mesh   1 at (   0   0   0)
       ---------------------------------------------------------------
       Max CFL number:  0.00E+00 at (   0,   0,   0)
       Max divergence:  0.28E-16 at (   3,   2,   1)
       Min divergence: -0.21E-16 at (   2,   2,   1)
       Max VN number:   0.00E+00 at (   0,   0,   0)
 
       Time Step    8400   November  1, 2020  16:47:24
       Step Size:    0.100E+01 s, Total Time:    8400.00 s
       Pressure Iterations:      1
       Maximum Velocity Error:  0.00E+00 on Mesh   1 at (   0   0   0)
       Maximum Pressure Error:  0.00E+00 on Mesh   1 at (   0   0   0)
       ---------------------------------------------------------------
       Max CFL number:  0.00E+00 at (   0,   0,   0)
       Max divergence:  0.28E-16 at (   3,   2,   1)
       Min divergence: -0.21E-16 at (   2,   2,   1)
       Max VN number:   0.00E+00 at (   0,   0,   0)
 
       Time Step    8500   November  1, 2020  16:47:24
       Step Size:    0.100E+01 s, Total Time:    8500.00 s
       Pressure Iterations:      1
       Maximum Velocity Error:  0.00E+00 on Mesh   1 at (   0   0   0)
       Maximum Pressure Error:  0.00E+00 on Mesh   1 at (   0   0   0)
       ---------------------------------------------------------------
       Max CFL number:  0.00E+00 at (   0,   0,   0)
       Max divergence:  0.28E-16 at (   3,   2,   1)
       Min divergence: -0.21E-16 at (   2,   2,   1)
       Max VN number:   0.00E+00 at (   0,   0,   0)
 
       Time Step    8600   November  1, 2020  16:47:24
       Step Size:    0.100E+01 s, Total Time:    8600.00 s
       Pressure Iterations:      1
       Maximum Velocity Error:  0.00E+00 on Mesh   1 at (   0   0   0)
       Maximum Pressure Error:  0.00E+00 on Mesh   1 at (   0   0   0)
       ---------------------------------------------------------------
       Max CFL number:  0.00E+00 at (   0,   0,   0)
       Max divergence:  0.28E-16 at (   3,   2,   1)
       Min divergence: -0.21E-16 at (   2,   2,   1)
       Max VN number:   0.00E+00 at (   0,   0,   0)
 
       Time Step    8700   November  1, 2020  16:47:24
       Step Size:    0.100E+01 s, Total Time:    8700.00 s
       Pressure Iterations:      1
       Maximum Velocity Error:  0.00E+00 on Mesh   1 at (   0   0   0)
       Maximum Pressure Error:  0.00E+00 on Mesh   1 at (   0   0   0)
       ---------------------------------------------------------------
       Max CFL number:  0.00E+00 at (   0,   0,   0)
       Max divergence:  0.28E-16 at (   3,   2,   1)
       Min divergence: -0.21E-16 at (   2,   2,   1)
       Max VN number:   0.00E+00 at (   0,   0,   0)
 
       Time Step    8800   November  1, 2020  16:47:24
       Step Size:    0.100E+01 s, Total Time:    8800.00 s
       Pressure Iterations:      1
       Maximum Velocity Error:  0.00E+00 on Mesh   1 at (   0   0   0)
       Maximum Pressure Error:  0.00E+00 on Mesh   1 at (   0   0   0)
       ---------------------------------------------------------------
       Max CFL number:  0.00E+00 at (   0,   0,   0)
       Max divergence:  0.28E-16 at (   3,   2,   1)
       Min divergence: -0.21E-16 at (   2,   2,   1)
       Max VN number:   0.00E+00 at (   0,   0,   0)
 
       Time Step    8900   November  1, 2020  16:47:24
       Step Size:    0.100E+01 s, Total Time:    8900.00 s
       Pressure Iterations:      1
       Maximum Velocity Error:  0.00E+00 on Mesh   1 at (   0   0   0)
       Maximum Pressure Error:  0.00E+00 on Mesh   1 at (   0   0   0)
       ---------------------------------------------------------------
       Max CFL number:  0.00E+00 at (   0,   0,   0)
       Max divergence:  0.28E-16 at (   3,   2,   1)
       Min divergence: -0.21E-16 at (   2,   2,   1)
       Max VN number:   0.00E+00 at (   0,   0,   0)
 
       Time Step    9000   November  1, 2020  16:47:24
       Step Size:    0.100E+01 s, Total Time:    9000.00 s
       Pressure Iterations:      1
       Maximum Velocity Error:  0.00E+00 on Mesh   1 at (   0   0   0)
       Maximum Pressure Error:  0.00E+00 on Mesh   1 at (   0   0   0)
       ---------------------------------------------------------------
       Max CFL number:  0.00E+00 at (   0,   0,   0)
       Max divergence:  0.28E-16 at (   3,   2,   1)
       Min divergence: -0.21E-16 at (   2,   2,   1)
       Max VN number:   0.00E+00 at (   0,   0,   0)
 
       Time Step    9100   November  1, 2020  16:47:24
       Step Size:    0.100E+01 s, Total Time:    9100.00 s
       Pressure Iterations:      1
       Maximum Velocity Error:  0.00E+00 on Mesh   1 at (   0   0   0)
       Maximum Pressure Error:  0.00E+00 on Mesh   1 at (   0   0   0)
       ---------------------------------------------------------------
       Max CFL number:  0.00E+00 at (   0,   0,   0)
       Max divergence:  0.28E-16 at (   3,   2,   1)
       Min divergence: -0.21E-16 at (   2,   2,   1)
       Max VN number:   0.00E+00 at (   0,   0,   0)
 
       Time Step    9200   November  1, 2020  16:47:24
       Step Size:    0.100E+01 s, Total Time:    9200.00 s
       Pressure Iterations:      1
       Maximum Velocity Error:  0.00E+00 on Mesh   1 at (   0   0   0)
       Maximum Pressure Error:  0.00E+00 on Mesh   1 at (   0   0   0)
       ---------------------------------------------------------------
       Max CFL number:  0.00E+00 at (   0,   0,   0)
       Max divergence:  0.28E-16 at (   3,   2,   1)
       Min divergence: -0.21E-16 at (   2,   2,   1)
       Max VN number:   0.00E+00 at (   0,   0,   0)
 
       Time Step    9300   November  1, 2020  16:47:24
       Step Size:    0.100E+01 s, Total Time:    9300.00 s
       Pressure Iterations:      1
       Maximum Velocity Error:  0.00E+00 on Mesh   1 at (   0   0   0)
       Maximum Pressure Error:  0.00E+00 on Mesh   1 at (   0   0   0)
       ---------------------------------------------------------------
       Max CFL number:  0.00E+00 at (   0,   0,   0)
       Max divergence:  0.28E-16 at (   3,   2,   1)
       Min divergence: -0.21E-16 at (   2,   2,   1)
       Max VN number:   0.00E+00 at (   0,   0,   0)
 
       Time Step    9400   November  1, 2020  16:47:24
       Step Size:    0.100E+01 s, Total Time:    9400.00 s
       Pressure Iterations:      1
       Maximum Velocity Error:  0.00E+00 on Mesh   1 at (   0   0   0)
       Maximum Pressure Error:  0.00E+00 on Mesh   1 at (   0   0   0)
       ---------------------------------------------------------------
       Max CFL number:  0.00E+00 at (   0,   0,   0)
       Max divergence:  0.28E-16 at (   3,   2,   1)
       Min divergence: -0.21E-16 at (   2,   2,   1)
       Max VN number:   0.00E+00 at (   0,   0,   0)
 
       Time Step    9500   November  1, 2020  16:47:24
       Step Size:    0.100E+01 s, Total Time:    9500.00 s
       Pressure Iterations:      1
       Maximum Velocity Error:  0.00E+00 on Mesh   1 at (   0   0   0)
       Maximum Pressure Error:  0.00E+00 on Mesh   1 at (   0   0   0)
       ---------------------------------------------------------------
       Max CFL number:  0.00E+00 at (   0,   0,   0)
       Max divergence:  0.28E-16 at (   3,   2,   1)
       Min divergence: -0.21E-16 at (   2,   2,   1)
       Max VN number:   0.00E+00 at (   0,   0,   0)
 
       Time Step    9600   November  1, 2020  16:47:24
       Step Size:    0.100E+01 s, Total Time:    9600.00 s
       Pressure Iterations:      1
       Maximum Velocity Error:  0.00E+00 on Mesh   1 at (   0   0   0)
       Maximum Pressure Error:  0.00E+00 on Mesh   1 at (   0   0   0)
       ---------------------------------------------------------------
       Max CFL number:  0.00E+00 at (   0,   0,   0)
       Max divergence:  0.28E-16 at (   3,   2,   1)
       Min divergence: -0.21E-16 at (   2,   2,   1)
       Max VN number:   0.00E+00 at (   0,   0,   0)
 
       Time Step    9700   November  1, 2020  16:47:24
       Step Size:    0.100E+01 s, Total Time:    9700.00 s
       Pressure Iterations:      1
       Maximum Velocity Error:  0.00E+00 on Mesh   1 at (   0   0   0)
       Maximum Pressure Error:  0.00E+00 on Mesh   1 at (   0   0   0)
       ---------------------------------------------------------------
       Max CFL number:  0.00E+00 at (   0,   0,   0)
       Max divergence:  0.28E-16 at (   3,   2,   1)
       Min divergence: -0.21E-16 at (   2,   2,   1)
       Max VN number:   0.00E+00 at (   0,   0,   0)
 
       Time Step    9800   November  1, 2020  16:47:24
       Step Size:    0.100E+01 s, Total Time:    9800.00 s
       Pressure Iterations:      1
       Maximum Velocity Error:  0.00E+00 on Mesh   1 at (   0   0   0)
       Maximum Pressure Error:  0.00E+00 on Mesh   1 at (   0   0   0)
       ---------------------------------------------------------------
       Max CFL number:  0.00E+00 at (   0,   0,   0)
       Max divergence:  0.28E-16 at (   3,   2,   1)
       Min divergence: -0.21E-16 at (   2,   2,   1)
       Max VN number:   0.00E+00 at (   0,   0,   0)
 
       Time Step    9900   November  1, 2020  16:47:24
       Step Size:    0.100E+01 s, Total Time:    9900.00 s
       Pressure Iterations:      1
       Maximum Velocity Error:  0.00E+00 on Mesh   1 at (   0   0   0)
       Maximum Pressure Error:  0.00E+00 on Mesh   1 at (   0   0   0)
       ---------------------------------------------------------------
       Max CFL number:  0.00E+00 at (   0,   0,   0)
       Max divergence:  0.28E-16 at (   3,   2,   1)
       Min divergence: -0.21E-16 at (   2,   2,   1)
       Max VN number:   0.00E+00 at (   0,   0,   0)
 
       Time Step   10000   November  1, 2020  16:47:24
       Step Size:    0.100E+01 s, Total Time:   10000.00 s
       Pressure Iterations:      1
       Maximum Velocity Error:  0.00E+00 on Mesh   1 at (   0   0   0)
       Maximum Pressure Error:  0.00E+00 on Mesh   1 at (   0   0   0)
       ---------------------------------------------------------------
       Max CFL number:  0.00E+00 at (   0,   0,   0)
       Max divergence:  0.28E-16 at (   3,   2,   1)
       Min divergence: -0.21E-16 at (   2,   2,   1)
       Max VN number:   0.00E+00 at (   0,   0,   0)
 
       Time Step   10100   November  1, 2020  16:47:24
       Step Size:    0.100E+01 s, Total Time:   10100.00 s
       Pressure Iterations:      1
       Maximum Velocity Error:  0.00E+00 on Mesh   1 at (   0   0   0)
       Maximum Pressure Error:  0.00E+00 on Mesh   1 at (   0   0   0)
       ---------------------------------------------------------------
       Max CFL number:  0.00E+00 at (   0,   0,   0)
       Max divergence:  0.28E-16 at (   3,   2,   1)
       Min divergence: -0.21E-16 at (   2,   2,   1)
       Max VN number:   0.00E+00 at (   0,   0,   0)
 
       Time Step   10200   November  1, 2020  16:47:24
       Step Size:    0.100E+01 s, Total Time:   10200.00 s
       Pressure Iterations:      1
       Maximum Velocity Error:  0.00E+00 on Mesh   1 at (   0   0   0)
       Maximum Pressure Error:  0.00E+00 on Mesh   1 at (   0   0   0)
       ---------------------------------------------------------------
       Max CFL number:  0.00E+00 at (   0,   0,   0)
       Max divergence:  0.28E-16 at (   3,   2,   1)
       Min divergence: -0.21E-16 at (   2,   2,   1)
       Max VN number:   0.00E+00 at (   0,   0,   0)
 
       Time Step   10300   November  1, 2020  16:47:24
       Step Size:    0.100E+01 s, Total Time:   10300.00 s
       Pressure Iterations:      1
       Maximum Velocity Error:  0.00E+00 on Mesh   1 at (   0   0   0)
       Maximum Pressure Error:  0.00E+00 on Mesh   1 at (   0   0   0)
       ---------------------------------------------------------------
       Max CFL number:  0.00E+00 at (   0,   0,   0)
       Max divergence:  0.28E-16 at (   3,   2,   1)
       Min divergence: -0.21E-16 at (   2,   2,   1)
       Max VN number:   0.00E+00 at (   0,   0,   0)
 
       Time Step   10400   November  1, 2020  16:47:24
       Step Size:    0.100E+01 s, Total Time:   10400.00 s
       Pressure Iterations:      1
       Maximum Velocity Error:  0.00E+00 on Mesh   1 at (   0   0   0)
       Maximum Pressure Error:  0.00E+00 on Mesh   1 at (   0   0   0)
       ---------------------------------------------------------------
       Max CFL number:  0.00E+00 at (   0,   0,   0)
       Max divergence:  0.28E-16 at (   3,   2,   1)
       Min divergence: -0.21E-16 at (   2,   2,   1)
       Max VN number:   0.00E+00 at (   0,   0,   0)
 
       Time Step   10500   November  1, 2020  16:47:24
       Step Size:    0.100E+01 s, Total Time:   10500.00 s
       Pressure Iterations:      1
       Maximum Velocity Error:  0.00E+00 on Mesh   1 at (   0   0   0)
       Maximum Pressure Error:  0.00E+00 on Mesh   1 at (   0   0   0)
       ---------------------------------------------------------------
       Max CFL number:  0.00E+00 at (   0,   0,   0)
       Max divergence:  0.28E-16 at (   3,   2,   1)
       Min divergence: -0.21E-16 at (   2,   2,   1)
       Max VN number:   0.00E+00 at (   0,   0,   0)
 
       Time Step   10600   November  1, 2020  16:47:24
       Step Size:    0.100E+01 s, Total Time:   10600.00 s
       Pressure Iterations:      1
       Maximum Velocity Error:  0.00E+00 on Mesh   1 at (   0   0   0)
       Maximum Pressure Error:  0.00E+00 on Mesh   1 at (   0   0   0)
       ---------------------------------------------------------------
       Max CFL number:  0.00E+00 at (   0,   0,   0)
       Max divergence:  0.28E-16 at (   3,   2,   1)
       Min divergence: -0.21E-16 at (   2,   2,   1)
       Max VN number:   0.00E+00 at (   0,   0,   0)
 
       Time Step   10700   November  1, 2020  16:47:24
       Step Size:    0.100E+01 s, Total Time:   10700.00 s
       Pressure Iterations:      1
       Maximum Velocity Error:  0.00E+00 on Mesh   1 at (   0   0   0)
       Maximum Pressure Error:  0.00E+00 on Mesh   1 at (   0   0   0)
       ---------------------------------------------------------------
       Max CFL number:  0.00E+00 at (   0,   0,   0)
       Max divergence:  0.28E-16 at (   3,   2,   1)
       Min divergence: -0.21E-16 at (   2,   2,   1)
       Max VN number:   0.00E+00 at (   0,   0,   0)
 
       Time Step   10800   November  1, 2020  16:47:24
       Step Size:    0.100E+01 s, Total Time:   10800.00 s
       Pressure Iterations:      1
       Maximum Velocity Error:  0.00E+00 on Mesh   1 at (   0   0   0)
       Maximum Pressure Error:  0.00E+00 on Mesh   1 at (   0   0   0)
       ---------------------------------------------------------------
       Max CFL number:  0.00E+00 at (   0,   0,   0)
       Max divergence:  0.28E-16 at (   3,   2,   1)
       Min divergence: -0.21E-16 at (   2,   2,   1)
       Max VN number:   0.00E+00 at (   0,   0,   0)
 
       Time Step   10900   November  1, 2020  16:47:24
       Step Size:    0.100E+01 s, Total Time:   10900.00 s
       Pressure Iterations:      1
       Maximum Velocity Error:  0.00E+00 on Mesh   1 at (   0   0   0)
       Maximum Pressure Error:  0.00E+00 on Mesh   1 at (   0   0   0)
       ---------------------------------------------------------------
       Max CFL number:  0.00E+00 at (   0,   0,   0)
       Max divergence:  0.28E-16 at (   3,   2,   1)
       Min divergence: -0.21E-16 at (   2,   2,   1)
       Max VN number:   0.00E+00 at (   0,   0,   0)
 
       Time Step   11000   November  1, 2020  16:47:24
       Step Size:    0.100E+01 s, Total Time:   11000.00 s
       Pressure Iterations:      1
       Maximum Velocity Error:  0.00E+00 on Mesh   1 at (   0   0   0)
       Maximum Pressure Error:  0.00E+00 on Mesh   1 at (   0   0   0)
       ---------------------------------------------------------------
       Max CFL number:  0.00E+00 at (   0,   0,   0)
[...]
       Max CFL number:  0.00E+00 at (   0,   0,   0)
       Max divergence:  0.28E-16 at (   3,   2,   1)
       Min divergence: -0.21E-16 at (   2,   2,   1)
       Max VN number:   0.00E+00 at (   0,   0,   0)
 
       Time Step  626700   November  1, 2020  16:49:26
       Step Size:    0.100E+01 s, Total Time:  626700.00 s
       Pressure Iterations:      1
       Maximum Velocity Error:  0.00E+00 on Mesh   1 at (   0   0   0)
       Maximum Pressure Error:  0.00E+00 on Mesh   1 at (   0   0   0)
       ---------------------------------------------------------------
       Max CFL number:  0.00E+00 at (   0,   0,   0)
       Max divergence:  0.28E-16 at (   3,   2,   1)
       Min divergence: -0.21E-16 at (   2,   2,   1)
       Max VN number:   0.00E+00 at (   0,   0,   0)
 
       Time Step  626800   November  1, 2020  16:49:26
       Step Size:    0.100E+01 s, Total Time:  626800.00 s
       Pressure Iterations:      1
       Maximum Velocity Error:  0.00E+00 on Mesh   1 at (   0   0   0)
       Maximum Pressure Error:  0.00E+00 on Mesh   1 at (   0   0   0)
       ---------------------------------------------------------------
       Max CFL number:  0.00E+00 at (   0,   0,   0)
       Max divergence:  0.28E-16 at (   3,   2,   1)
       Min divergence: -0.21E-16 at (   2,   2,   1)
       Max VN number:   0.00E+00 at (   0,   0,   0)
 
       Time Step  626900   November  1, 2020  16:49:26
       Step Size:    0.100E+01 s, Total Time:  626900.00 s
       Pressure Iterations:      1
       Maximum Velocity Error:  0.00E+00 on Mesh   1 at (   0   0   0)
       Maximum Pressure Error:  0.00E+00 on Mesh   1 at (   0   0   0)
       ---------------------------------------------------------------
       Max CFL number:  0.00E+00 at (   0,   0,   0)
       Max divergence:  0.28E-16 at (   3,   2,   1)
       Min divergence: -0.21E-16 at (   2,   2,   1)
       Max VN number:   0.00E+00 at (   0,   0,   0)
 
       Time Step  627000   November  1, 2020  16:49:26
       Step Size:    0.100E+01 s, Total Time:  627000.00 s
       Pressure Iterations:      1
       Maximum Velocity Error:  0.00E+00 on Mesh   1 at (   0   0   0)
       Maximum Pressure Error:  0.00E+00 on Mesh   1 at (   0   0   0)
       ---------------------------------------------------------------
       Max CFL number:  0.00E+00 at (   0,   0,   0)
       Max divergence:  0.28E-16 at (   3,   2,   1)
       Min divergence: -0.21E-16 at (   2,   2,   1)
       Max VN number:   0.00E+00 at (   0,   0,   0)
 
       Time Step  627100   November  1, 2020  16:49:26
       Step Size:    0.100E+01 s, Total Time:  627100.00 s
       Pressure Iterations:      1
       Maximum Velocity Error:  0.00E+00 on Mesh   1 at (   0   0   0)
       Maximum Pressure Error:  0.00E+00 on Mesh   1 at (   0   0   0)
       ---------------------------------------------------------------
       Max CFL number:  0.00E+00 at (   0,   0,   0)
       Max divergence:  0.28E-16 at (   3,   2,   1)
       Min divergence: -0.21E-16 at (   2,   2,   1)
       Max VN number:   0.00E+00 at (   0,   0,   0)
 
       Time Step  627200   November  1, 2020  16:49:26
       Step Size:    0.100E+01 s, Total Time:  627200.00 s
       Pressure Iterations:      1
       Maximum Velocity Error:  0.00E+00 on Mesh   1 at (   0   0   0)
       Maximum Pressure Error:  0.00E+00 on Mesh   1 at (   0   0   0)
       ---------------------------------------------------------------
       Max CFL number:  0.00E+00 at (   0,   0,   0)
       Max divergence:  0.28E-16 at (   3,   2,   1)
       Min divergence: -0.21E-16 at (   2,   2,   1)
       Max VN number:   0.00E+00 at (   0,   0,   0)
 
       Time Step  627300   November  1, 2020  16:49:26
       Step Size:    0.100E+01 s, Total Time:  627300.00 s
       Pressure Iterations:      1
       Maximum Velocity Error:  0.00E+00 on Mesh   1 at (   0   0   0)
       Maximum Pressure Error:  0.00E+00 on Mesh   1 at (   0   0   0)
       ---------------------------------------------------------------
       Max CFL number:  0.00E+00 at (   0,   0,   0)
       Max divergence:  0.28E-16 at (   3,   2,   1)
       Min divergence: -0.21E-16 at (   2,   2,   1)
       Max VN number:   0.00E+00 at (   0,   0,   0)
 
       Time Step  627400   November  1, 2020  16:49:26
       Step Size:    0.100E+01 s, Total Time:  627400.00 s
       Pressure Iterations:      1
       Maximum Velocity Error:  0.00E+00 on Mesh   1 at (   0   0   0)
       Maximum Pressure Error:  0.00E+00 on Mesh   1 at (   0   0   0)
       ---------------------------------------------------------------
       Max CFL number:  0.00E+00 at (   0,   0,   0)
       Max divergence:  0.28E-16 at (   3,   2,   1)
       Min divergence: -0.21E-16 at (   2,   2,   1)
       Max VN number:   0.00E+00 at (   0,   0,   0)
 
       Time Step  627500   November  1, 2020  16:49:26
       Step Size:    0.100E+01 s, Total Time:  627500.00 s
       Pressure Iterations:      1
       Maximum Velocity Error:  0.00E+00 on Mesh   1 at (   0   0   0)
       Maximum Pressure Error:  0.00E+00 on Mesh   1 at (   0   0   0)
       ---------------------------------------------------------------
       Max CFL number:  0.00E+00 at (   0,   0,   0)
       Max divergence:  0.28E-16 at (   3,   2,   1)
       Min divergence: -0.21E-16 at (   2,   2,   1)
       Max VN number:   0.00E+00 at (   0,   0,   0)
 
       Time Step  627600   November  1, 2020  16:49:26
       Step Size:    0.100E+01 s, Total Time:  627600.00 s
       Pressure Iterations:      1
       Maximum Velocity Error:  0.00E+00 on Mesh   1 at (   0   0   0)
       Maximum Pressure Error:  0.00E+00 on Mesh   1 at (   0   0   0)
       ---------------------------------------------------------------
       Max CFL number:  0.00E+00 at (   0,   0,   0)
       Max divergence:  0.28E-16 at (   3,   2,   1)
       Min divergence: -0.21E-16 at (   2,   2,   1)
       Max VN number:   0.00E+00 at (   0,   0,   0)
 
       Time Step  627700   November  1, 2020  16:49:26
       Step Size:    0.100E+01 s, Total Time:  627700.00 s
       Pressure Iterations:      1
       Maximum Velocity Error:  0.00E+00 on Mesh   1 at (   0   0   0)
       Maximum Pressure Error:  0.00E+00 on Mesh   1 at (   0   0   0)
       ---------------------------------------------------------------
       Max CFL number:  0.00E+00 at (   0,   0,   0)
       Max divergence:  0.28E-16 at (   3,   2,   1)
       Min divergence: -0.21E-16 at (   2,   2,   1)
       Max VN number:   0.00E+00 at (   0,   0,   0)
 
       Time Step  627800   November  1, 2020  16:49:26
       Step Size:    0.100E+01 s, Total Time:  627800.00 s
       Pressure Iterations:      1
       Maximum Velocity Error:  0.00E+00 on Mesh   1 at (   0   0   0)
       Maximum Pressure Error:  0.00E+00 on Mesh   1 at (   0   0   0)
       ---------------------------------------------------------------
       Max CFL number:  0.00E+00 at (   0,   0,   0)
       Max divergence:  0.28E-16 at (   3,   2,   1)
       Min divergence: -0.21E-16 at (   2,   2,   1)
       Max VN number:   0.00E+00 at (   0,   0,   0)
 
       Time Step  627900   November  1, 2020  16:49:26
       Step Size:    0.100E+01 s, Total Time:  627900.00 s
       Pressure Iterations:      1
       Maximum Velocity Error:  0.00E+00 on Mesh   1 at (   0   0   0)
       Maximum Pressure Error:  0.00E+00 on Mesh   1 at (   0   0   0)
       ---------------------------------------------------------------
       Max CFL number:  0.00E+00 at (   0,   0,   0)
       Max divergence:  0.28E-16 at (   3,   2,   1)
       Min divergence: -0.21E-16 at (   2,   2,   1)
       Max VN number:   0.00E+00 at (   0,   0,   0)
 
       Time Step  628000   November  1, 2020  16:49:26
       Step Size:    0.100E+01 s, Total Time:  628000.00 s
       Pressure Iterations:      1
       Maximum Velocity Error:  0.00E+00 on Mesh   1 at (   0   0   0)
       Maximum Pressure Error:  0.00E+00 on Mesh   1 at (   0   0   0)
       ---------------------------------------------------------------
       Max CFL number:  0.00E+00 at (   0,   0,   0)
       Max divergence:  0.28E-16 at (   3,   2,   1)
       Min divergence: -0.21E-16 at (   2,   2,   1)
       Max VN number:   0.00E+00 at (   0,   0,   0)
 
       Time Step  628100   November  1, 2020  16:49:26
       Step Size:    0.100E+01 s, Total Time:  628100.00 s
       Pressure Iterations:      1
       Maximum Velocity Error:  0.00E+00 on Mesh   1 at (   0   0   0)
       Maximum Pressure Error:  0.00E+00 on Mesh   1 at (   0   0   0)
       ---------------------------------------------------------------
       Max CFL number:  0.00E+00 at (   0,   0,   0)
       Max divergence:  0.28E-16 at (   3,   2,   1)
       Min divergence: -0.21E-16 at (   2,   2,   1)
       Max VN number:   0.00E+00 at (   0,   0,   0)
 
       Time Step  628200   November  1, 2020  16:49:26
       Step Size:    0.100E+01 s, Total Time:  628200.00 s
       Pressure Iterations:      1
       Maximum Velocity Error:  0.00E+00 on Mesh   1 at (   0   0   0)
       Maximum Pressure Error:  0.00E+00 on Mesh   1 at (   0   0   0)
       ---------------------------------------------------------------
       Max CFL number:  0.00E+00 at (   0,   0,   0)
       Max divergence:  0.28E-16 at (   3,   2,   1)
       Min divergence: -0.21E-16 at (   2,   2,   1)
       Max VN number:   0.00E+00 at (   0,   0,   0)
 
       Time Step  628300   November  1, 2020  16:49:26
       Step Size:    0.100E+01 s, Total Time:  628300.00 s
       Pressure Iterations:      1
       Maximum Velocity Error:  0.00E+00 on Mesh   1 at (   0   0   0)
       Maximum Pressure Error:  0.00E+00 on Mesh   1 at (   0   0   0)
       ---------------------------------------------------------------
       Max CFL number:  0.00E+00 at (   0,   0,   0)
       Max divergence:  0.28E-16 at (   3,   2,   1)
       Min divergence: -0.21E-16 at (   2,   2,   1)
       Max VN number:   0.00E+00 at (   0,   0,   0)
 
       Time Step  628400   November  1, 2020  16:49:26
       Step Size:    0.100E+01 s, Total Time:  628400.00 s
       Pressure Iterations:      1
       Maximum Velocity Error:  0.00E+00 on Mesh   1 at (   0   0   0)
       Maximum Pressure Error:  0.00E+00 on Mesh   1 at (   0   0   0)
       ---------------------------------------------------------------
       Max CFL number:  0.00E+00 at (   0,   0,   0)
       Max divergence:  0.28E-16 at (   3,   2,   1)
       Min divergence: -0.21E-16 at (   2,   2,   1)
       Max VN number:   0.00E+00 at (   0,   0,   0)
 
       Time Step  628500   November  1, 2020  16:49:26
       Step Size:    0.100E+01 s, Total Time:  628500.00 s
       Pressure Iterations:      1
       Maximum Velocity Error:  0.00E+00 on Mesh   1 at (   0   0   0)
       Maximum Pressure Error:  0.00E+00 on Mesh   1 at (   0   0   0)
       ---------------------------------------------------------------
       Max CFL number:  0.00E+00 at (   0,   0,   0)
       Max divergence:  0.28E-16 at (   3,   2,   1)
       Min divergence: -0.21E-16 at (   2,   2,   1)
       Max VN number:   0.00E+00 at (   0,   0,   0)
 
       Time Step  628600   November  1, 2020  16:49:26
       Step Size:    0.100E+01 s, Total Time:  628600.00 s
       Pressure Iterations:      1
       Maximum Velocity Error:  0.00E+00 on Mesh   1 at (   0   0   0)
       Maximum Pressure Error:  0.00E+00 on Mesh   1 at (   0   0   0)
       ---------------------------------------------------------------
       Max CFL number:  0.00E+00 at (   0,   0,   0)
       Max divergence:  0.28E-16 at (   3,   2,   1)
       Min divergence: -0.21E-16 at (   2,   2,   1)
       Max VN number:   0.00E+00 at (   0,   0,   0)
 
       Time Step  628700   November  1, 2020  16:49:26
       Step Size:    0.100E+01 s, Total Time:  628700.00 s
       Pressure Iterations:      1
       Maximum Velocity Error:  0.00E+00 on Mesh   1 at (   0   0   0)
       Maximum Pressure Error:  0.00E+00 on Mesh   1 at (   0   0   0)
       ---------------------------------------------------------------
       Max CFL number:  0.00E+00 at (   0,   0,   0)
       Max divergence:  0.28E-16 at (   3,   2,   1)
       Min divergence: -0.21E-16 at (   2,   2,   1)
       Max VN number:   0.00E+00 at (   0,   0,   0)
 
       Time Step  628800   November  1, 2020  16:49:26
       Step Size:    0.100E+01 s, Total Time:  628800.00 s
       Pressure Iterations:      1
       Maximum Velocity Error:  0.00E+00 on Mesh   1 at (   0   0   0)
       Maximum Pressure Error:  0.00E+00 on Mesh   1 at (   0   0   0)
       ---------------------------------------------------------------
       Max CFL number:  0.00E+00 at (   0,   0,   0)
       Max divergence:  0.28E-16 at (   3,   2,   1)
       Min divergence: -0.21E-16 at (   2,   2,   1)
       Max VN number:   0.00E+00 at (   0,   0,   0)
 
       Time Step  628900   November  1, 2020  16:49:26
       Step Size:    0.100E+01 s, Total Time:  628900.00 s
       Pressure Iterations:      1
       Maximum Velocity Error:  0.00E+00 on Mesh   1 at (   0   0   0)
       Maximum Pressure Error:  0.00E+00 on Mesh   1 at (   0   0   0)
       ---------------------------------------------------------------
       Max CFL number:  0.00E+00 at (   0,   0,   0)
       Max divergence:  0.28E-16 at (   3,   2,   1)
       Min divergence: -0.21E-16 at (   2,   2,   1)
       Max VN number:   0.00E+00 at (   0,   0,   0)
 
       Time Step  629000   November  1, 2020  16:49:26
       Step Size:    0.100E+01 s, Total Time:  629000.00 s
       Pressure Iterations:      1
       Maximum Velocity Error:  0.00E+00 on Mesh   1 at (   0   0   0)
       Maximum Pressure Error:  0.00E+00 on Mesh   1 at (   0   0   0)
       ---------------------------------------------------------------
       Max CFL number:  0.00E+00 at (   0,   0,   0)
       Max divergence:  0.28E-16 at (   3,   2,   1)
       Min divergence: -0.21E-16 at (   2,   2,   1)
       Max VN number:   0.00E+00 at (   0,   0,   0)
 
       Time Step  629100   November  1, 2020  16:49:26
       Step Size:    0.100E+01 s, Total Time:  629100.00 s
       Pressure Iterations:      1
       Maximum Velocity Error:  0.00E+00 on Mesh   1 at (   0   0   0)
       Maximum Pressure Error:  0.00E+00 on Mesh   1 at (   0   0   0)
       ---------------------------------------------------------------
       Max CFL number:  0.00E+00 at (   0,   0,   0)
       Max divergence:  0.28E-16 at (   3,   2,   1)
       Min divergence: -0.21E-16 at (   2,   2,   1)
       Max VN number:   0.00E+00 at (   0,   0,   0)
 
       Time Step  629200   November  1, 2020  16:49:26
       Step Size:    0.100E+01 s, Total Time:  629200.00 s
       Pressure Iterations:      1
       Maximum Velocity Error:  0.00E+00 on Mesh   1 at (   0   0   0)
       Maximum Pressure Error:  0.00E+00 on Mesh   1 at (   0   0   0)
       ---------------------------------------------------------------
       Max CFL number:  0.00E+00 at (   0,   0,   0)
       Max divergence:  0.28E-16 at (   3,   2,   1)
       Min divergence: -0.21E-16 at (   2,   2,   1)
       Max VN number:   0.00E+00 at (   0,   0,   0)
 
       Time Step  629300   November  1, 2020  16:49:26
       Step Size:    0.100E+01 s, Total Time:  629300.00 s
       Pressure Iterations:      1
       Maximum Velocity Error:  0.00E+00 on Mesh   1 at (   0   0   0)
       Maximum Pressure Error:  0.00E+00 on Mesh   1 at (   0   0   0)
       ---------------------------------------------------------------
       Max CFL number:  0.00E+00 at (   0,   0,   0)
       Max divergence:  0.28E-16 at (   3,   2,   1)
       Min divergence: -0.21E-16 at (   2,   2,   1)
       Max VN number:   0.00E+00 at (   0,   0,   0)
 
       Time Step  629400   November  1, 2020  16:49:26
       Step Size:    0.100E+01 s, Total Time:  629400.00 s
       Pressure Iterations:      1
       Maximum Velocity Error:  0.00E+00 on Mesh   1 at (   0   0   0)
       Maximum Pressure Error:  0.00E+00 on Mesh   1 at (   0   0   0)
       ---------------------------------------------------------------
       Max CFL number:  0.00E+00 at (   0,   0,   0)
       Max divergence:  0.28E-16 at (   3,   2,   1)
       Min divergence: -0.21E-16 at (   2,   2,   1)
       Max VN number:   0.00E+00 at (   0,   0,   0)
 
       Time Step  629500   November  1, 2020  16:49:26
       Step Size:    0.100E+01 s, Total Time:  629500.00 s
       Pressure Iterations:      1
       Maximum Velocity Error:  0.00E+00 on Mesh   1 at (   0   0   0)
       Maximum Pressure Error:  0.00E+00 on Mesh   1 at (   0   0   0)
       ---------------------------------------------------------------
       Max CFL number:  0.00E+00 at (   0,   0,   0)
       Max divergence:  0.28E-16 at (   3,   2,   1)
       Min divergence: -0.21E-16 at (   2,   2,   1)
       Max VN number:   0.00E+00 at (   0,   0,   0)
 
       Time Step  629600   November  1, 2020  16:49:26
       Step Size:    0.100E+01 s, Total Time:  629600.00 s
       Pressure Iterations:      1
       Maximum Velocity Error:  0.00E+00 on Mesh   1 at (   0   0   0)
       Maximum Pressure Error:  0.00E+00 on Mesh   1 at (   0   0   0)
       ---------------------------------------------------------------
       Max CFL number:  0.00E+00 at (   0,   0,   0)
       Max divergence:  0.28E-16 at (   3,   2,   1)
       Min divergence: -0.21E-16 at (   2,   2,   1)
       Max VN number:   0.00E+00 at (   0,   0,   0)
 
       Time Step  629700   November  1, 2020  16:49:26
       Step Size:    0.100E+01 s, Total Time:  629700.00 s
       Pressure Iterations:      1
       Maximum Velocity Error:  0.00E+00 on Mesh   1 at (   0   0   0)
       Maximum Pressure Error:  0.00E+00 on Mesh   1 at (   0   0   0)
       ---------------------------------------------------------------
       Max CFL number:  0.00E+00 at (   0,   0,   0)
       Max divergence:  0.28E-16 at (   3,   2,   1)
       Min divergence: -0.21E-16 at (   2,   2,   1)
       Max VN number:   0.00E+00 at (   0,   0,   0)
 
       Time Step  629800   November  1, 2020  16:49:26
       Step Size:    0.100E+01 s, Total Time:  629800.00 s
       Pressure Iterations:      1
       Maximum Velocity Error:  0.00E+00 on Mesh   1 at (   0   0   0)
       Maximum Pressure Error:  0.00E+00 on Mesh   1 at (   0   0   0)
       ---------------------------------------------------------------
       Max CFL number:  0.00E+00 at (   0,   0,   0)
       Max divergence:  0.28E-16 at (   3,   2,   1)
       Min divergence: -0.21E-16 at (   2,   2,   1)
       Max VN number:   0.00E+00 at (   0,   0,   0)
 
       Time Step  629900   November  1, 2020  16:49:26
       Step Size:    0.100E+01 s, Total Time:  629900.00 s
       Pressure Iterations:      1
       Maximum Velocity Error:  0.00E+00 on Mesh   1 at (   0   0   0)
       Maximum Pressure Error:  0.00E+00 on Mesh   1 at (   0   0   0)
       ---------------------------------------------------------------
       Max CFL number:  0.00E+00 at (   0,   0,   0)
       Max divergence:  0.28E-16 at (   3,   2,   1)
       Min divergence: -0.21E-16 at (   2,   2,   1)
       Max VN number:   0.00E+00 at (   0,   0,   0)
 
       Time Step  630000   November  1, 2020  16:49:26
       Step Size:    0.100E+01 s, Total Time:  630000.00 s
       Pressure Iterations:      1
       Maximum Velocity Error:  0.00E+00 on Mesh   1 at (   0   0   0)
       Maximum Pressure Error:  0.00E+00 on Mesh   1 at (   0   0   0)
       ---------------------------------------------------------------
       Max CFL number:  0.00E+00 at (   0,   0,   0)
       Max divergence:  0.28E-16 at (   3,   2,   1)
       Min divergence: -0.21E-16 at (   2,   2,   1)
       Max VN number:   0.00E+00 at (   0,   0,   0)
 


 Time Stepping Wall Clock Time (s):      123.999
 Total Elapsed Wall Clock Time (s):      124.354

STOP: FDS completed successfully (CHID: heat_conduction_a)
